*SPEF "ieee 1481-1999"
*DESIGN "signal_generator"
*DATE "11:11:11 Fri 11 11, 1111"
*VENDOR "OpenRCX"
*PROGRAM "Parallel Extraction"
*VERSION "1.0"
*DESIGN_FLOW "NAME_SCOPE LOCAL" "PIN_CAP NONE"
*DIVIDER /
*DELIMITER :
*BUS_DELIMITER []
*T_UNIT 1 NS
*C_UNIT 1 PF
*R_UNIT 1 OHM
*L_UNIT 1 HENRY

*NAME_MAP
*1 io_analog[0]
*2 io_analog[10]
*3 io_analog[1]
*4 io_analog[2]
*5 io_analog[3]
*6 io_analog[4]
*7 io_analog[5]
*8 io_analog[6]
*9 io_analog[7]
*10 io_analog[8]
*11 io_analog[9]
*12 io_in[0]
*13 io_in[10]
*14 io_in[11]
*15 io_in[12]
*16 io_in[13]
*17 io_in[14]
*18 io_in[15]
*19 io_in[16]
*20 io_in[17]
*21 io_in[18]
*22 io_in[19]
*23 io_in[1]
*24 io_in[20]
*25 io_in[21]
*26 io_in[22]
*27 io_in[23]
*28 io_in[24]
*29 io_in[25]
*30 io_in[26]
*31 io_in[2]
*32 io_in[3]
*33 io_in[4]
*34 io_in[5]
*35 io_in[6]
*36 io_in[7]
*37 io_in[8]
*38 io_in[9]
*39 net97
*40 net107
*41 net108
*42 net109
*43 net110
*44 net111
*45 net112
*46 net113
*47 net114
*48 net115
*49 net116
*50 net98
*51 net117
*52 net118
*53 net119
*54 net120
*55 net121
*56 net122
*57 net123
*58 net99
*59 net100
*60 net101
*61 net102
*62 net103
*63 net104
*64 net105
*65 net106
*66 net124
*67 io_out[10]
*68 io_out[11]
*69 io_out[12]
*70 io_out[13]
*71 io_out[14]
*72 io_out[15]
*73 io_out[16]
*74 io_out[17]
*75 net131
*76 net132
*77 net125
*78 net133
*79 net134
*80 net135
*81 net136
*82 net137
*83 net138
*84 net139
*85 net126
*86 net127
*87 net128
*88 net129
*89 net130
*90 io_out[7]
*91 io_out[8]
*92 io_out[9]
*95 wb_clk_i
*96 wb_rst_i
*97 wbs_ack_o
*98 wbs_adr_i[0]
*99 wbs_adr_i[10]
*100 wbs_adr_i[11]
*101 wbs_adr_i[12]
*102 wbs_adr_i[13]
*103 wbs_adr_i[14]
*104 wbs_adr_i[15]
*105 wbs_adr_i[16]
*106 wbs_adr_i[17]
*107 wbs_adr_i[18]
*108 wbs_adr_i[19]
*109 wbs_adr_i[1]
*110 wbs_adr_i[20]
*111 wbs_adr_i[21]
*112 wbs_adr_i[22]
*113 wbs_adr_i[23]
*114 wbs_adr_i[24]
*115 wbs_adr_i[25]
*116 wbs_adr_i[26]
*117 wbs_adr_i[27]
*118 wbs_adr_i[28]
*119 wbs_adr_i[29]
*120 wbs_adr_i[2]
*121 wbs_adr_i[30]
*122 wbs_adr_i[31]
*123 wbs_adr_i[3]
*124 wbs_adr_i[4]
*125 wbs_adr_i[5]
*126 wbs_adr_i[6]
*127 wbs_adr_i[7]
*128 wbs_adr_i[8]
*129 wbs_adr_i[9]
*130 wbs_cyc_i
*131 wbs_dat_i[0]
*132 wbs_dat_i[10]
*133 wbs_dat_i[11]
*134 wbs_dat_i[12]
*135 wbs_dat_i[13]
*136 wbs_dat_i[14]
*137 wbs_dat_i[15]
*138 wbs_dat_i[16]
*139 wbs_dat_i[17]
*140 wbs_dat_i[18]
*141 wbs_dat_i[19]
*142 wbs_dat_i[1]
*143 wbs_dat_i[20]
*144 wbs_dat_i[21]
*145 wbs_dat_i[22]
*146 wbs_dat_i[23]
*147 wbs_dat_i[24]
*148 wbs_dat_i[25]
*149 wbs_dat_i[26]
*150 wbs_dat_i[27]
*151 wbs_dat_i[28]
*152 wbs_dat_i[29]
*153 wbs_dat_i[2]
*154 wbs_dat_i[30]
*155 wbs_dat_i[31]
*156 wbs_dat_i[3]
*157 wbs_dat_i[4]
*158 wbs_dat_i[5]
*159 wbs_dat_i[6]
*160 wbs_dat_i[7]
*161 wbs_dat_i[8]
*162 wbs_dat_i[9]
*163 wbs_dat_o[0]
*164 net149
*165 net150
*166 net151
*167 net152
*168 net153
*169 net154
*170 net155
*171 net156
*172 net157
*173 net158
*174 net140
*175 net159
*176 net160
*177 net161
*178 net162
*179 net163
*180 net164
*181 net165
*182 net166
*183 net167
*184 net168
*185 net141
*186 net169
*187 net170
*188 net142
*189 net143
*190 net144
*191 net145
*192 net146
*193 net147
*194 net148
*195 wbs_sel_i[0]
*196 wbs_sel_i[1]
*197 wbs_sel_i[2]
*198 wbs_sel_i[3]
*199 wbs_stb_i
*200 wbs_we_i
*201 _0000_
*202 _0001_
*203 _0002_
*204 _0003_
*205 _0004_
*206 _0005_
*207 _0006_
*208 _0007_
*209 _0008_
*210 _0009_
*211 _0010_
*212 _0011_
*213 _0012_
*214 _0013_
*215 _0014_
*216 _0015_
*217 _0016_
*218 _0017_
*219 _0018_
*220 _0019_
*221 _0020_
*222 _0021_
*223 _0022_
*224 _0023_
*225 _0024_
*226 _0025_
*227 _0026_
*228 _0027_
*229 _0028_
*230 _0029_
*231 _0030_
*232 _0031_
*233 _0032_
*234 _0033_
*235 _0034_
*236 _0035_
*237 _0036_
*238 _0037_
*239 _0038_
*240 _0039_
*241 _0040_
*242 _0041_
*243 _0042_
*244 _0043_
*245 _0044_
*246 _0045_
*247 _0046_
*248 _0047_
*249 _0048_
*250 _0049_
*251 _0050_
*252 _0051_
*253 _0052_
*254 _0053_
*255 _0054_
*256 _0055_
*257 _0056_
*258 _0057_
*259 _0058_
*260 _0059_
*261 _0060_
*262 _0061_
*263 _0062_
*264 _0063_
*265 _0064_
*266 _0065_
*267 _0066_
*268 _0067_
*269 _0068_
*270 _0069_
*271 _0070_
*272 _0071_
*273 _0072_
*274 _0073_
*275 _0074_
*276 _0075_
*277 _0076_
*278 _0077_
*279 _0078_
*280 _0079_
*281 _0080_
*282 _0081_
*283 _0082_
*284 _0083_
*285 _0084_
*286 _0085_
*287 _0086_
*288 _0087_
*289 _0088_
*290 _0089_
*291 _0090_
*292 _0091_
*293 _0092_
*294 _0093_
*295 _0094_
*296 _0095_
*297 _0096_
*298 _0097_
*299 _0098_
*300 _0099_
*301 _0100_
*302 _0101_
*303 _0102_
*304 _0103_
*305 _0104_
*306 _0105_
*307 _0106_
*308 _0107_
*309 _0108_
*310 _0109_
*311 _0110_
*312 _0111_
*313 _0112_
*314 _0113_
*315 _0114_
*316 _0115_
*317 _0116_
*318 _0117_
*319 _0118_
*320 _0119_
*321 _0120_
*322 _0121_
*323 _0122_
*324 _0123_
*325 _0124_
*326 _0125_
*327 _0126_
*328 _0127_
*329 _0128_
*330 _0129_
*331 _0130_
*332 _0131_
*333 _0132_
*334 _0133_
*335 _0134_
*336 _0135_
*337 _0136_
*338 _0137_
*339 _0138_
*340 _0139_
*341 _0140_
*342 _0141_
*343 _0142_
*344 _0143_
*345 _0144_
*346 _0145_
*347 _0146_
*348 _0147_
*349 _0148_
*350 _0149_
*351 _0150_
*352 _0151_
*353 _0152_
*354 _0153_
*355 _0154_
*356 _0155_
*357 _0156_
*358 _0157_
*359 _0158_
*360 _0159_
*361 _0160_
*362 _0161_
*363 _0162_
*364 _0163_
*365 _0164_
*366 _0165_
*367 _0166_
*368 _0167_
*369 _0168_
*370 _0169_
*371 _0170_
*372 _0171_
*373 _0172_
*374 _0173_
*375 _0174_
*376 _0175_
*377 _0176_
*378 _0177_
*379 _0178_
*380 _0179_
*381 _0180_
*382 _0181_
*383 _0182_
*384 _0183_
*385 _0184_
*386 _0185_
*387 _0186_
*388 _0187_
*389 _0188_
*390 _0189_
*391 _0190_
*392 _0191_
*393 _0192_
*394 _0193_
*395 _0194_
*396 _0195_
*397 _0196_
*398 _0197_
*399 _0198_
*400 _0199_
*401 _0200_
*402 _0201_
*403 _0202_
*404 _0203_
*405 _0204_
*406 _0205_
*407 _0206_
*408 _0207_
*409 _0208_
*410 _0209_
*411 _0210_
*412 _0211_
*413 _0212_
*414 _0213_
*415 _0214_
*416 _0215_
*417 _0216_
*418 _0217_
*419 _0218_
*420 _0219_
*421 _0220_
*422 _0221_
*423 _0222_
*424 _0223_
*425 _0224_
*426 _0225_
*427 _0226_
*428 _0227_
*429 _0228_
*430 _0229_
*431 _0230_
*432 _0231_
*433 _0232_
*434 _0233_
*435 _0234_
*436 _0235_
*437 _0236_
*438 _0237_
*439 _0238_
*440 _0239_
*441 _0240_
*442 _0241_
*443 _0242_
*444 _0243_
*445 _0244_
*446 _0245_
*447 _0246_
*448 _0247_
*449 _0248_
*450 _0249_
*451 _0250_
*452 _0251_
*453 _0252_
*454 _0253_
*455 _0254_
*456 _0255_
*457 _0256_
*458 _0257_
*459 _0258_
*460 _0259_
*461 _0260_
*462 _0261_
*463 _0262_
*464 _0263_
*465 _0264_
*466 _0265_
*467 _0266_
*468 _0267_
*469 _0268_
*470 _0269_
*471 _0270_
*472 _0271_
*473 _0272_
*474 _0273_
*475 _0274_
*476 _0275_
*477 _0276_
*478 _0277_
*479 _0278_
*480 _0279_
*481 _0280_
*482 _0281_
*483 _0282_
*484 _0283_
*485 _0284_
*486 _0285_
*487 _0286_
*488 _0287_
*489 _0288_
*490 _0289_
*491 _0290_
*492 _0291_
*493 _0292_
*494 _0293_
*495 _0294_
*496 _0295_
*497 _0296_
*498 _0297_
*499 _0298_
*500 _0299_
*501 _0300_
*502 _0301_
*503 _0302_
*504 _0303_
*505 _0304_
*506 _0305_
*507 _0306_
*508 _0307_
*509 _0308_
*510 _0309_
*511 _0310_
*512 _0311_
*513 _0312_
*514 _0313_
*515 _0314_
*516 _0315_
*517 _0316_
*518 _0317_
*519 _0318_
*520 _0319_
*521 _0320_
*522 _0321_
*523 _0322_
*524 _0323_
*525 _0324_
*526 _0325_
*527 _0326_
*528 _0327_
*529 _0328_
*530 _0329_
*531 _0330_
*532 _0331_
*533 _0332_
*534 _0333_
*535 _0334_
*536 _0335_
*537 _0336_
*538 _0337_
*539 _0338_
*540 _0339_
*541 _0340_
*542 _0341_
*543 _0342_
*544 _0343_
*545 _0344_
*546 _0345_
*547 _0346_
*548 _0347_
*549 _0348_
*550 _0349_
*551 _0350_
*552 _0351_
*553 _0352_
*554 _0353_
*555 _0354_
*556 _0355_
*557 _0356_
*558 _0357_
*559 _0358_
*560 _0359_
*561 _0360_
*562 _0361_
*563 _0362_
*564 _0363_
*565 _0364_
*566 _0365_
*567 _0366_
*568 _0367_
*569 _0368_
*570 _0369_
*571 _0370_
*572 _0371_
*573 _0372_
*574 _0373_
*575 _0374_
*576 _0375_
*577 _0376_
*578 _0377_
*579 _0378_
*580 _0379_
*581 _0380_
*582 _0381_
*583 _0382_
*584 _0383_
*585 _0384_
*586 _0385_
*587 _0386_
*588 _0387_
*589 _0388_
*590 _0389_
*591 _0390_
*592 _0391_
*593 _0392_
*594 _0393_
*595 _0394_
*596 _0395_
*597 _0396_
*598 _0397_
*599 _0398_
*600 _0399_
*601 _0400_
*602 _0401_
*603 _0402_
*604 _0403_
*605 _0404_
*606 _0405_
*607 _0406_
*608 _0407_
*609 _0408_
*610 _0409_
*611 _0410_
*612 _0411_
*613 _0412_
*614 _0413_
*615 _0414_
*616 _0415_
*617 _0416_
*618 _0417_
*619 _0418_
*620 _0419_
*621 _0420_
*622 _0421_
*623 _0422_
*624 _0423_
*625 _0424_
*626 _0425_
*627 _0426_
*628 _0427_
*629 _0428_
*630 _0429_
*631 _0430_
*632 _0431_
*633 _0432_
*634 _0433_
*635 _0434_
*636 _0435_
*637 _0436_
*638 _0437_
*639 _0438_
*640 _0439_
*641 _0440_
*642 _0441_
*643 _0442_
*644 _0443_
*645 _0444_
*646 _0445_
*647 _0446_
*648 _0447_
*649 _0448_
*650 _0449_
*651 _0450_
*652 _0451_
*653 _0452_
*654 _0453_
*655 _0454_
*656 _0455_
*657 _0456_
*658 _0457_
*659 _0458_
*660 _0459_
*661 _0460_
*662 adc_bridge1\.adc_cfg1\[0\]
*663 adc_bridge1\.adc_cfg1\[10\]
*664 adc_bridge1\.adc_cfg1\[11\]
*665 adc_bridge1\.adc_cfg1\[12\]
*666 adc_bridge1\.adc_cfg1\[13\]
*667 adc_bridge1\.adc_cfg1\[14\]
*668 adc_bridge1\.adc_cfg1\[15\]
*669 adc_bridge1\.adc_cfg1\[1\]
*670 adc_bridge1\.adc_cfg1\[2\]
*671 adc_bridge1\.adc_cfg1\[3\]
*672 adc_bridge1\.adc_cfg1\[4\]
*673 adc_bridge1\.adc_cfg1\[5\]
*674 adc_bridge1\.adc_cfg1\[6\]
*675 adc_bridge1\.adc_cfg1\[7\]
*676 adc_bridge1\.adc_cfg1\[8\]
*677 adc_bridge1\.adc_cfg1\[9\]
*678 adc_bridge1\.adc_cfg2\[0\]
*679 adc_bridge1\.adc_cfg2\[10\]
*680 adc_bridge1\.adc_cfg2\[11\]
*681 adc_bridge1\.adc_cfg2\[12\]
*682 adc_bridge1\.adc_cfg2\[13\]
*683 adc_bridge1\.adc_cfg2\[14\]
*684 adc_bridge1\.adc_cfg2\[15\]
*685 adc_bridge1\.adc_cfg2\[1\]
*686 adc_bridge1\.adc_cfg2\[2\]
*687 adc_bridge1\.adc_cfg2\[3\]
*688 adc_bridge1\.adc_cfg2\[4\]
*689 adc_bridge1\.adc_cfg2\[5\]
*690 adc_bridge1\.adc_cfg2\[6\]
*691 adc_bridge1\.adc_cfg2\[7\]
*692 adc_bridge1\.adc_cfg2\[8\]
*693 adc_bridge1\.adc_cfg2\[9\]
*694 adc_bridge1\.adc_cfg_load_r\[0\]
*695 adc_bridge1\.adc_cfg_load_r\[10\]
*696 adc_bridge1\.adc_cfg_load_r\[11\]
*697 adc_bridge1\.adc_cfg_load_r\[12\]
*698 adc_bridge1\.adc_cfg_load_r\[13\]
*699 adc_bridge1\.adc_cfg_load_r\[14\]
*700 adc_bridge1\.adc_cfg_load_r\[15\]
*701 adc_bridge1\.adc_cfg_load_r\[16\]
*702 adc_bridge1\.adc_cfg_load_r\[17\]
*703 adc_bridge1\.adc_cfg_load_r\[18\]
*704 adc_bridge1\.adc_cfg_load_r\[19\]
*705 adc_bridge1\.adc_cfg_load_r\[1\]
*706 adc_bridge1\.adc_cfg_load_r\[20\]
*707 adc_bridge1\.adc_cfg_load_r\[21\]
*708 adc_bridge1\.adc_cfg_load_r\[22\]
*709 adc_bridge1\.adc_cfg_load_r\[23\]
*710 adc_bridge1\.adc_cfg_load_r\[24\]
*711 adc_bridge1\.adc_cfg_load_r\[25\]
*712 adc_bridge1\.adc_cfg_load_r\[26\]
*713 adc_bridge1\.adc_cfg_load_r\[27\]
*714 adc_bridge1\.adc_cfg_load_r\[28\]
*715 adc_bridge1\.adc_cfg_load_r\[29\]
*716 adc_bridge1\.adc_cfg_load_r\[2\]
*717 adc_bridge1\.adc_cfg_load_r\[30\]
*718 adc_bridge1\.adc_cfg_load_r\[31\]
*719 adc_bridge1\.adc_cfg_load_r\[32\]
*720 adc_bridge1\.adc_cfg_load_r\[3\]
*721 adc_bridge1\.adc_cfg_load_r\[4\]
*722 adc_bridge1\.adc_cfg_load_r\[5\]
*723 adc_bridge1\.adc_cfg_load_r\[6\]
*724 adc_bridge1\.adc_cfg_load_r\[7\]
*725 adc_bridge1\.adc_cfg_load_r\[8\]
*726 adc_bridge1\.adc_cfg_load_r\[9\]
*727 adc_bridge1\.adc_cfg_written_r
*728 adc_bridge1\.adc_conv_finished
*729 adc_bridge1\.adc_conv_finished_osr
*730 adc_bridge1\.adc_res\[0\]
*731 adc_bridge1\.adc_res\[10\]
*732 adc_bridge1\.adc_res\[11\]
*733 adc_bridge1\.adc_res\[12\]
*734 adc_bridge1\.adc_res\[13\]
*735 adc_bridge1\.adc_res\[14\]
*736 adc_bridge1\.adc_res\[15\]
*737 adc_bridge1\.adc_res\[1\]
*738 adc_bridge1\.adc_res\[2\]
*739 adc_bridge1\.adc_res\[3\]
*740 adc_bridge1\.adc_res\[4\]
*741 adc_bridge1\.adc_res\[5\]
*742 adc_bridge1\.adc_res\[6\]
*743 adc_bridge1\.adc_res\[7\]
*744 adc_bridge1\.adc_res\[8\]
*745 adc_bridge1\.adc_res\[9\]
*746 adc_bridge1\.adc_res_r\[0\]
*747 adc_bridge1\.adc_res_r\[10\]
*748 adc_bridge1\.adc_res_r\[11\]
*749 adc_bridge1\.adc_res_r\[12\]
*750 adc_bridge1\.adc_res_r\[13\]
*751 adc_bridge1\.adc_res_r\[14\]
*752 adc_bridge1\.adc_res_r\[15\]
*753 adc_bridge1\.adc_res_r\[16\]
*754 adc_bridge1\.adc_res_r\[17\]
*755 adc_bridge1\.adc_res_r\[18\]
*756 adc_bridge1\.adc_res_r\[19\]
*757 adc_bridge1\.adc_res_r\[1\]
*758 adc_bridge1\.adc_res_r\[2\]
*759 adc_bridge1\.adc_res_r\[3\]
*760 adc_bridge1\.adc_res_r\[4\]
*761 adc_bridge1\.adc_res_r\[5\]
*762 adc_bridge1\.adc_res_r\[6\]
*763 adc_bridge1\.adc_res_r\[7\]
*764 adc_bridge1\.adc_res_r\[8\]
*765 adc_bridge1\.adc_res_r\[9\]
*766 adc_bridge1\.clk
*767 adc_bridge1\.conv_finish
*768 adc_bridge1\.conv_finish_sel
*769 adc_bridge2\.adc_conv_finished
*770 adc_bridge2\.adc_conv_finished_osr
*771 adc_bridge2\.adc_res\[0\]
*772 adc_bridge2\.adc_res\[10\]
*773 adc_bridge2\.adc_res\[11\]
*774 adc_bridge2\.adc_res\[12\]
*775 adc_bridge2\.adc_res\[13\]
*776 adc_bridge2\.adc_res\[14\]
*777 adc_bridge2\.adc_res\[15\]
*778 adc_bridge2\.adc_res\[1\]
*779 adc_bridge2\.adc_res\[2\]
*780 adc_bridge2\.adc_res\[3\]
*781 adc_bridge2\.adc_res\[4\]
*782 adc_bridge2\.adc_res\[5\]
*783 adc_bridge2\.adc_res\[6\]
*784 adc_bridge2\.adc_res\[7\]
*785 adc_bridge2\.adc_res\[8\]
*786 adc_bridge2\.adc_res\[9\]
*787 adc_bridge2\.adc_res_r\[0\]
*788 adc_bridge2\.adc_res_r\[10\]
*789 adc_bridge2\.adc_res_r\[11\]
*790 adc_bridge2\.adc_res_r\[12\]
*791 adc_bridge2\.adc_res_r\[13\]
*792 adc_bridge2\.adc_res_r\[14\]
*793 adc_bridge2\.adc_res_r\[15\]
*794 adc_bridge2\.adc_res_r\[16\]
*795 adc_bridge2\.adc_res_r\[17\]
*796 adc_bridge2\.adc_res_r\[1\]
*797 adc_bridge2\.adc_res_r\[2\]
*798 adc_bridge2\.adc_res_r\[3\]
*799 adc_bridge2\.adc_res_r\[4\]
*800 adc_bridge2\.adc_res_r\[5\]
*801 adc_bridge2\.adc_res_r\[6\]
*802 adc_bridge2\.adc_res_r\[7\]
*803 adc_bridge2\.adc_res_r\[8\]
*804 adc_bridge2\.adc_res_r\[9\]
*805 adc_bridge2\.conv_finish
*806 analog_signal_gen0\.contador_flancos\[0\]
*807 analog_signal_gen0\.contador_flancos\[1\]
*808 analog_signal_gen0\.contador_flancos\[2\]
*809 analog_signal_gen0\.i_phi_l2
*810 analog_signal_gen0\.i_phi_p
*811 analog_signal_gen0\.o_adc_start_convertion
*812 analog_signal_gen0\.o_pixel_flag
*813 ciclos\[0\]
*814 ciclos\[1\]
*815 contador\[0\]
*816 contador\[10\]
*817 contador\[11\]
*818 contador\[12\]
*819 contador\[13\]
*820 contador\[14\]
*821 contador\[15\]
*822 contador\[16\]
*823 contador\[17\]
*824 contador\[18\]
*825 contador\[19\]
*826 contador\[1\]
*827 contador\[20\]
*828 contador\[21\]
*829 contador\[22\]
*830 contador\[23\]
*831 contador\[24\]
*832 contador\[25\]
*833 contador\[26\]
*834 contador\[27\]
*835 contador\[28\]
*836 contador\[29\]
*837 contador\[2\]
*838 contador\[30\]
*839 contador\[31\]
*840 contador\[3\]
*841 contador\[4\]
*842 contador\[5\]
*843 contador\[6\]
*844 contador\[7\]
*845 contador\[8\]
*846 contador\[9\]
*847 contador_waves\[0\]
*848 contador_waves\[10\]
*849 contador_waves\[11\]
*850 contador_waves\[12\]
*851 contador_waves\[13\]
*852 contador_waves\[1\]
*853 contador_waves\[2\]
*854 contador_waves\[3\]
*855 contador_waves\[4\]
*856 contador_waves\[5\]
*857 contador_waves\[6\]
*858 contador_waves\[7\]
*859 contador_waves\[8\]
*860 contador_waves\[9\]
*861 estado\[0\]
*862 estado\[1\]
*863 f_sel_bit_counter\[0\]
*864 f_sel_bit_counter\[1\]
*865 f_sel_bit_counter\[2\]
*866 f_sel_sr\[0\]
*867 f_sel_sr\[1\]
*868 f_sel_sr\[2\]
*869 f_sel_sr\[3\]
*870 f_selected\[0\]
*871 f_selected\[1\]
*872 f_selected\[2\]
*873 f_selected\[3\]
*874 i_adc_data_n_ch1_buff
*875 i_adc_data_n_ch2_buff
*876 i_adc_data_p_ch1_buff
*877 i_adc_data_p_ch2_buff
*878 i_clk_wb
*879 i_enable_wb
*880 i_f_select\[0\]
*881 i_f_select\[1\]
*882 i_f_select\[2\]
*883 i_f_select\[3\]
*884 i_f_select_wb\[0\]
*885 i_f_select_wb\[1\]
*886 i_f_select_wb\[2\]
*887 i_f_select_wb\[3\]
*888 i_test_reg
*889 net1
*890 net10
*891 net11
*892 net12
*893 net13
*894 net14
*895 net15
*896 net16
*897 net17
*898 net171
*899 net172
*900 net173
*901 net174
*902 net18
*903 net19
*904 net2
*905 net20
*906 net21
*907 net22
*908 net23
*909 net24
*910 net25
*911 net26
*912 net27
*913 net28
*914 net29
*915 net3
*916 net30
*917 net31
*918 net32
*919 net33
*920 net34
*921 net35
*922 net36
*923 net37
*924 net38
*925 net39
*926 net4
*927 net40
*928 net41
*929 net42
*930 net43
*931 net44
*932 net45
*933 net46
*934 net47
*935 net48
*936 net49
*937 net5
*938 net50
*939 net51
*940 net52
*941 net53
*942 net54
*943 net55
*944 net56
*945 net57
*946 net58
*947 net59
*948 net6
*949 net60
*950 net61
*951 net62
*952 net63
*953 net64
*954 net65
*955 net66
*956 net67
*957 net68
*958 net69
*959 net7
*960 net70
*961 net71
*962 net72
*963 net73
*964 net74
*965 net75
*966 net76
*967 net77
*968 net78
*969 net79
*970 net8
*971 net80
*972 net81
*973 net82
*974 net83
*975 net84
*976 net85
*977 net86
*978 net87
*979 net88
*980 net89
*981 net9
*982 net90
*983 net91
*984 net92
*985 net93
*986 net94
*987 net95
*988 net96
*989 o_phi_l1
*990 o_phi_r
*991 o_test\[0\]
*992 o_test\[1\]
*993 o_test\[2\]
*994 pulse_ended
*995 ANTENNA_1
*996 ANTENNA_10
*997 ANTENNA_11
*998 ANTENNA_12
*999 ANTENNA_13
*1000 ANTENNA_14
*1001 ANTENNA_15
*1002 ANTENNA_16
*1003 ANTENNA_17
*1004 ANTENNA_18
*1005 ANTENNA_19
*1006 ANTENNA_2
*1007 ANTENNA_20
*1008 ANTENNA_21
*1009 ANTENNA_3
*1010 ANTENNA_4
*1011 ANTENNA_5
*1012 ANTENNA_6
*1013 ANTENNA_7
*1014 ANTENNA_8
*1015 ANTENNA_9
*1016 ANTENNA__0470__A
*1017 ANTENNA__0471__A
*1018 ANTENNA__0472__A
*1019 ANTENNA__0473__A
*1020 ANTENNA__0474__A
*1021 ANTENNA__0476__A
*1022 ANTENNA__0476__B
*1023 ANTENNA__0477__A
*1024 ANTENNA__0477__B
*1025 ANTENNA__0478__A_N
*1026 ANTENNA__0478__B
*1027 ANTENNA__0479__A
*1028 ANTENNA__0480__A1
*1029 ANTENNA__0480__A2
*1030 ANTENNA__0480__A3
*1031 ANTENNA__0480__B1
*1032 ANTENNA__0481__A1
*1033 ANTENNA__0481__A2
*1034 ANTENNA__0481__B1
*1035 ANTENNA__0482__A
*1036 ANTENNA__0483__A_N
*1037 ANTENNA__0483__B
*1038 ANTENNA__0484__B
*1039 ANTENNA__0485__A_N
*1040 ANTENNA__0485__B
*1041 ANTENNA__0486__A1
*1042 ANTENNA__0486__S
*1043 ANTENNA__0487__S
*1044 ANTENNA__0488__S
*1045 ANTENNA__0489__S
*1046 ANTENNA__0490__S
*1047 ANTENNA__0491__S
*1048 ANTENNA__0492__S
*1049 ANTENNA__0493__S
*1050 ANTENNA__0494__S
*1051 ANTENNA__0495__S
*1052 ANTENNA__0496__S
*1053 ANTENNA__0497__S
*1054 ANTENNA__0498__S
*1055 ANTENNA__0499__S
*1056 ANTENNA__0500__S
*1057 ANTENNA__0501__A0
*1058 ANTENNA__0501__A1
*1059 ANTENNA__0501__S
*1060 ANTENNA__0502__A0
*1061 ANTENNA__0502__A1
*1062 ANTENNA__0502__S
*1063 ANTENNA__0503__A
*1064 ANTENNA__0514__S
*1065 ANTENNA__0515__S
*1066 ANTENNA__0516__S
*1067 ANTENNA__0517__S
*1068 ANTENNA__0518__S
*1069 ANTENNA__0519__S
*1070 ANTENNA__0520__A0
*1071 ANTENNA__0520__A1
*1072 ANTENNA__0521__A_N
*1073 ANTENNA__0522__S
*1074 ANTENNA__0523__A_N
*1075 ANTENNA__0523__B
*1076 ANTENNA__0524__A1
*1077 ANTENNA__0524__A2
*1078 ANTENNA__0525__A
*1079 ANTENNA__0525__B
*1080 ANTENNA__0530__B
*1081 ANTENNA__0530__C
*1082 ANTENNA__0536__A
*1083 ANTENNA__0536__B
*1084 ANTENNA__0536__C
*1085 ANTENNA__0538__A
*1086 ANTENNA__0539__A
*1087 ANTENNA__0539__B
*1088 ANTENNA__0539__D_N
*1089 ANTENNA__0540__A
*1090 ANTENNA__0540__B
*1091 ANTENNA__0540__C
*1092 ANTENNA__0540__D
*1093 ANTENNA__0541__A
*1094 ANTENNA__0541__B
*1095 ANTENNA__0541__C
*1096 ANTENNA__0542__A1
*1097 ANTENNA__0542__A2
*1098 ANTENNA__0542__A3
*1099 ANTENNA__0543__A1
*1100 ANTENNA__0543__A2
*1101 ANTENNA__0544__A1
*1102 ANTENNA__0544__A2
*1103 ANTENNA__0544__B1
*1104 ANTENNA__0545__A1
*1105 ANTENNA__0545__B1_N
*1106 ANTENNA__0546__A
*1107 ANTENNA__0546__C
*1108 ANTENNA__0546__D_N
*1109 ANTENNA__0547__A1
*1110 ANTENNA__0547__A2
*1111 ANTENNA__0547__A3
*1112 ANTENNA__0547__B1
*1113 ANTENNA__0547__C1
*1114 ANTENNA__0548__A
*1115 ANTENNA__0548__B
*1116 ANTENNA__0548__C
*1117 ANTENNA__0548__D
*1118 ANTENNA__0549__A1
*1119 ANTENNA__0549__A2
*1120 ANTENNA__0549__A3
*1121 ANTENNA__0549__A4
*1122 ANTENNA__0550__A1
*1123 ANTENNA__0550__A2
*1124 ANTENNA__0550__A3
*1125 ANTENNA__0550__B1
*1126 ANTENNA__0550__B2
*1127 ANTENNA__0552__B
*1128 ANTENNA__0553__B
*1129 ANTENNA__0554__A2
*1130 ANTENNA__0557__A
*1131 ANTENNA__0557__B
*1132 ANTENNA__0557__D_N
*1133 ANTENNA__0559__A_N
*1134 ANTENNA__0559__B
*1135 ANTENNA__0560__A_N
*1136 ANTENNA__0560__B
*1137 ANTENNA__0561__A_N
*1138 ANTENNA__0561__B
*1139 ANTENNA__0562__C
*1140 ANTENNA__0562__D_N
*1141 ANTENNA__0563__A
*1142 ANTENNA__0563__B
*1143 ANTENNA__0564__A0
*1144 ANTENNA__0564__A1
*1145 ANTENNA__0564__S
*1146 ANTENNA__0565__A0
*1147 ANTENNA__0565__A1
*1148 ANTENNA__0565__S
*1149 ANTENNA__0566__A0
*1150 ANTENNA__0566__A1
*1151 ANTENNA__0566__S
*1152 ANTENNA__0567__A
*1153 ANTENNA__0567__B
*1154 ANTENNA__0567__C
*1155 ANTENNA__0568__A
*1156 ANTENNA__0569__A0
*1157 ANTENNA__0569__A1
*1158 ANTENNA__0571__A0
*1159 ANTENNA__0571__A1
*1160 ANTENNA__0572__B
*1161 ANTENNA__0572__C
*1162 ANTENNA__0572__D
*1163 ANTENNA__0574__A1
*1164 ANTENNA__0574__S
*1165 ANTENNA__0575__A1
*1166 ANTENNA__0575__S
*1167 ANTENNA__0576__A1
*1168 ANTENNA__0576__S
*1169 ANTENNA__0577__A0
*1170 ANTENNA__0577__A1
*1171 ANTENNA__0577__S
*1172 ANTENNA__0578__A1
*1173 ANTENNA__0578__A2
*1174 ANTENNA__0579__A1
*1175 ANTENNA__0579__B1
*1176 ANTENNA__0580__B
*1177 ANTENNA__0580__C
*1178 ANTENNA__0581__A1
*1179 ANTENNA__0581__A2
*1180 ANTENNA__0582__C
*1181 ANTENNA__0585__A
*1182 ANTENNA__0587__A
*1183 ANTENNA__0590__B
*1184 ANTENNA__0593__B
*1185 ANTENNA__0594__B1_N
*1186 ANTENNA__0598__B
*1187 ANTENNA__0601__B
*1188 ANTENNA__0602__B1_N
*1189 ANTENNA__0606__B
*1190 ANTENNA__0609__B
*1191 ANTENNA__0610__B1_N
*1192 ANTENNA__0614__B
*1193 ANTENNA__0615__B1
*1194 ANTENNA__0635__B1
*1195 ANTENNA__0636__A2
*1196 ANTENNA__0636__C1
*1197 ANTENNA__0708__A1
*1198 ANTENNA__0735__A2
*1199 ANTENNA__0736__B1_N
*1200 ANTENNA__0737__A
*1201 ANTENNA__0737__B
*1202 ANTENNA__0737__C
*1203 ANTENNA__0738__A1
*1204 ANTENNA__0738__A2
*1205 ANTENNA__0738__B1
*1206 ANTENNA__0738__C1
*1207 ANTENNA__0739__A1
*1208 ANTENNA__0739__A2
*1209 ANTENNA__0740__B
*1210 ANTENNA__0825__S
*1211 ANTENNA__0826__A
*1212 ANTENNA__0826__D_N
*1213 ANTENNA__0827__A2
*1214 ANTENNA__0827__A3
*1215 ANTENNA__0828__A
*1216 ANTENNA__0829__S
*1217 ANTENNA__0830__A
*1218 ANTENNA__0830__D_N
*1219 ANTENNA__0831__A2
*1220 ANTENNA__0831__A3
*1221 ANTENNA__0832__A
*1222 ANTENNA__0833__S
*1223 ANTENNA__0834__A
*1224 ANTENNA__0834__D_N
*1225 ANTENNA__0835__A2
*1226 ANTENNA__0835__A3
*1227 ANTENNA__0836__A
*1228 ANTENNA__0837__A1
*1229 ANTENNA__0837__S
*1230 ANTENNA__0838__A
*1231 ANTENNA__0838__D_N
*1232 ANTENNA__0839__A2
*1233 ANTENNA__0839__A3
*1234 ANTENNA__0840__A
*1235 ANTENNA__0841__B
*1236 ANTENNA__0841__C
*1237 ANTENNA__0842__A1
*1238 ANTENNA__0842__S
*1239 ANTENNA__0843__A
*1240 ANTENNA__0844__S
*1241 ANTENNA__0845__A
*1242 ANTENNA__0846__S
*1243 ANTENNA__0847__A
*1244 ANTENNA__0848__S
*1245 ANTENNA__0849__A
*1246 ANTENNA__0850__B1
*1247 ANTENNA__0851__A
*1248 ANTENNA__0852__A
*1249 ANTENNA__0854__A
*1250 ANTENNA__0855__A1
*1251 ANTENNA__0861__A0
*1252 ANTENNA__0861__S
*1253 ANTENNA__0862__A0
*1254 ANTENNA__0862__S
*1255 ANTENNA__0863__A0
*1256 ANTENNA__0863__S
*1257 ANTENNA__0864__A0
*1258 ANTENNA__0864__S
*1259 ANTENNA__0865__A0
*1260 ANTENNA__0865__S
*1261 ANTENNA__0866__A0
*1262 ANTENNA__0866__S
*1263 ANTENNA__0867__A0
*1264 ANTENNA__0867__S
*1265 ANTENNA__0868__A0
*1266 ANTENNA__0868__S
*1267 ANTENNA__0869__A0
*1268 ANTENNA__0869__S
*1269 ANTENNA__0870__A0
*1270 ANTENNA__0870__S
*1271 ANTENNA__0871__A0
*1272 ANTENNA__0872__A0
*1273 ANTENNA__0873__A0
*1274 ANTENNA__0874__A0
*1275 ANTENNA__0875__A0
*1276 ANTENNA__0876__A0
*1277 ANTENNA__0877__A0
*1278 ANTENNA__0877__S
*1279 ANTENNA__0878__A0
*1280 ANTENNA__0878__S
*1281 ANTENNA__0879__A0
*1282 ANTENNA__0879__S
*1283 ANTENNA__0880__A0
*1284 ANTENNA__0880__S
*1285 ANTENNA__0881__A0
*1286 ANTENNA__0881__S
*1287 ANTENNA__0882__A0
*1288 ANTENNA__0882__S
*1289 ANTENNA__0883__A0
*1290 ANTENNA__0884__A0
*1291 ANTENNA__0885__A0
*1292 ANTENNA__0886__A0
*1293 ANTENNA__0887__A0
*1294 ANTENNA__0888__A0
*1295 ANTENNA__0889__A0
*1296 ANTENNA__0890__A0
*1297 ANTENNA__0891__A0
*1298 ANTENNA__0892__A0
*1299 ANTENNA__0893__A0
*1300 ANTENNA__0893__S
*1301 ANTENNA__0894__S
*1302 ANTENNA__0899__S
*1303 ANTENNA__0900__S
*1304 ANTENNA__0901__S
*1305 ANTENNA__0902__S
*1306 ANTENNA__0926__S
*1307 ANTENNA__0927__D_N
*1308 ANTENNA__0933__CLK
*1309 ANTENNA__0934__CLK
*1310 ANTENNA__0935__CLK
*1311 ANTENNA__0935__RESET_B
*1312 ANTENNA__0936__CLK
*1313 ANTENNA__0936__RESET_B
*1314 ANTENNA__0937__CLK
*1315 ANTENNA__0937__RESET_B
*1316 ANTENNA__0938__CLK
*1317 ANTENNA__0938__D
*1318 ANTENNA__0939__CLK
*1319 ANTENNA__0939__D
*1320 ANTENNA__0940__CLK
*1321 ANTENNA__0940__D
*1322 ANTENNA__0941__CLK
*1323 ANTENNA__0941__D
*1324 ANTENNA__0942__CLK
*1325 ANTENNA__0942__D
*1326 ANTENNA__0943__CLK
*1327 ANTENNA__0944__CLK
*1328 ANTENNA__0944__D
*1329 ANTENNA__0945__CLK
*1330 ANTENNA__0946__CLK
*1331 ANTENNA__0947__CLK
*1332 ANTENNA__0947__D
*1333 ANTENNA__0948__CLK
*1334 ANTENNA__0948__D
*1335 ANTENNA__0949__CLK
*1336 ANTENNA__0949__D
*1337 ANTENNA__0950__CLK
*1338 ANTENNA__0951__CLK
*1339 ANTENNA__0952__CLK
*1340 ANTENNA__0953__CLK
*1341 ANTENNA__0953__D
*1342 ANTENNA__0954__CLK
*1343 ANTENNA__0955__CLK
*1344 ANTENNA__0956__CLK
*1345 ANTENNA__0957__CLK
*1346 ANTENNA__0958__CLK
*1347 ANTENNA__0971__CLK
*1348 ANTENNA__0972__CLK
*1349 ANTENNA__0974__CLK
*1350 ANTENNA__0975__CLK
*1351 ANTENNA__0976__CLK
*1352 ANTENNA__0993__CLK
*1353 ANTENNA__0994__CLK
*1354 ANTENNA__1009__CLK
*1355 ANTENNA__1010__CLK
*1356 ANTENNA__1011__CLK
*1357 ANTENNA__1012__CLK
*1358 ANTENNA__1013__CLK
*1359 ANTENNA__1013__D
*1360 ANTENNA__1014__CLK
*1361 ANTENNA__1015__CLK
*1362 ANTENNA__1016__CLK
*1363 ANTENNA__1017__CLK
*1364 ANTENNA__1018__CLK
*1365 ANTENNA__1019__CLK
*1366 ANTENNA__1020__CLK
*1367 ANTENNA__1021__CLK
*1368 ANTENNA__1022__CLK
*1369 ANTENNA__1022__D
*1370 ANTENNA__1022__RESET_B
*1371 ANTENNA__1023__D
*1372 ANTENNA__1024__CLK
*1373 ANTENNA__1024__D
*1374 ANTENNA__1024__RESET_B
*1375 ANTENNA__1025__CLK
*1376 ANTENNA__1025__RESET_B
*1377 ANTENNA__1026__CLK
*1378 ANTENNA__1026__RESET_B
*1379 ANTENNA__1027__CLK
*1380 ANTENNA__1027__RESET_B
*1381 ANTENNA__1028__CLK
*1382 ANTENNA__1028__RESET_B
*1383 ANTENNA__1029__CLK
*1384 ANTENNA__1029__RESET_B
*1385 ANTENNA__1030__CLK
*1386 ANTENNA__1030__RESET_B
*1387 ANTENNA__1031__CLK
*1388 ANTENNA__1031__RESET_B
*1389 ANTENNA__1032__CLK
*1390 ANTENNA__1032__RESET_B
*1391 ANTENNA__1033__CLK
*1392 ANTENNA__1033__RESET_B
*1393 ANTENNA__1034__CLK
*1394 ANTENNA__1034__RESET_B
*1395 ANTENNA__1035__CLK
*1396 ANTENNA__1035__RESET_B
*1397 ANTENNA__1036__CLK
*1398 ANTENNA__1036__RESET_B
*1399 ANTENNA__1037__CLK
*1400 ANTENNA__1037__RESET_B
*1401 ANTENNA__1038__CLK
*1402 ANTENNA__1038__RESET_B
*1403 ANTENNA__1039__CLK
*1404 ANTENNA__1039__RESET_B
*1405 ANTENNA__1040__CLK
*1406 ANTENNA__1040__D
*1407 ANTENNA__1040__RESET_B
*1408 ANTENNA__1041__CLK
*1409 ANTENNA__1041__RESET_B
*1410 ANTENNA__1042__CLK
*1411 ANTENNA__1059__CLK
*1412 ANTENNA__1059__RESET_B
*1413 ANTENNA__1060__RESET_B
*1414 ANTENNA__1061__RESET_B
*1415 ANTENNA__1062__RESET_B
*1416 ANTENNA__1063__RESET_B
*1417 ANTENNA__1064__RESET_B
*1418 ANTENNA__1065__RESET_B
*1419 ANTENNA__1066__RESET_B
*1420 ANTENNA__1067__RESET_B
*1421 ANTENNA__1068__RESET_B
*1422 ANTENNA__1069__RESET_B
*1423 ANTENNA__1078__CLK
*1424 ANTENNA__1078__RESET_B
*1425 ANTENNA__1093__RESET_B
*1426 ANTENNA__1094__CLK
*1427 ANTENNA__1094__RESET_B
*1428 ANTENNA__1095__CLK
*1429 ANTENNA__1095__RESET_B
*1430 ANTENNA__1096__CLK
*1431 ANTENNA__1096__RESET_B
*1432 ANTENNA__1097__CLK
*1433 ANTENNA__1097__RESET_B
*1434 ANTENNA__1098__RESET_B
*1435 ANTENNA__1099__RESET_B
*1436 ANTENNA__1100__RESET_B
*1437 ANTENNA__1101__RESET_B
*1438 ANTENNA__1106__CLK
*1439 ANTENNA__1107__CLK
*1440 ANTENNA__1113__CLK
*1441 ANTENNA__1114__CLK
*1442 ANTENNA__1115__CLK
*1443 ANTENNA__1123__CLK
*1444 ANTENNA__1126__CLK
*1445 ANTENNA__1127__CLK
*1446 ANTENNA__1128__CLK
*1447 ANTENNA__1129__CLK
*1448 ANTENNA__1130__RESET_B
*1449 ANTENNA__1131__CLK
*1450 ANTENNA__1131__D
*1451 ANTENNA_adc1_clk_vcm
*1452 ANTENNA_adc1_config_1_in\[0\]
*1453 ANTENNA_adc1_config_1_in\[10\]
*1454 ANTENNA_adc1_config_1_in\[11\]
*1455 ANTENNA_adc1_config_1_in\[12\]
*1456 ANTENNA_adc1_config_1_in\[13\]
*1457 ANTENNA_adc1_config_1_in\[14\]
*1458 ANTENNA_adc1_config_1_in\[15\]
*1459 ANTENNA_adc1_config_1_in\[1\]
*1460 ANTENNA_adc1_config_1_in\[2\]
*1461 ANTENNA_adc1_config_1_in\[3\]
*1462 ANTENNA_adc1_config_1_in\[4\]
*1463 ANTENNA_adc1_config_1_in\[5\]
*1464 ANTENNA_adc1_config_1_in\[6\]
*1465 ANTENNA_adc1_config_1_in\[7\]
*1466 ANTENNA_adc1_config_1_in\[8\]
*1467 ANTENNA_adc1_config_1_in\[9\]
*1468 ANTENNA_adc1_config_2_in\[0\]
*1469 ANTENNA_adc1_config_2_in\[10\]
*1470 ANTENNA_adc1_config_2_in\[11\]
*1471 ANTENNA_adc1_config_2_in\[12\]
*1472 ANTENNA_adc1_config_2_in\[13\]
*1473 ANTENNA_adc1_config_2_in\[14\]
*1474 ANTENNA_adc1_config_2_in\[15\]
*1475 ANTENNA_adc1_config_2_in\[1\]
*1476 ANTENNA_adc1_config_2_in\[2\]
*1477 ANTENNA_adc1_config_2_in\[3\]
*1478 ANTENNA_adc1_config_2_in\[4\]
*1479 ANTENNA_adc1_config_2_in\[5\]
*1480 ANTENNA_adc1_config_2_in\[6\]
*1481 ANTENNA_adc1_config_2_in\[7\]
*1482 ANTENNA_adc1_config_2_in\[8\]
*1483 ANTENNA_adc1_config_2_in\[9\]
*1484 ANTENNA_adc1_inn_analog
*1485 ANTENNA_adc1_inp_analog
*1486 ANTENNA_adc1_rst_n
*1487 ANTENNA_adc1_start_conversion_in
*1488 ANTENNA_adc2_clk_vcm
*1489 ANTENNA_adc2_config_1_in\[0\]
*1490 ANTENNA_adc2_config_1_in\[10\]
*1491 ANTENNA_adc2_config_1_in\[11\]
*1492 ANTENNA_adc2_config_1_in\[12\]
*1493 ANTENNA_adc2_config_1_in\[13\]
*1494 ANTENNA_adc2_config_1_in\[14\]
*1495 ANTENNA_adc2_config_1_in\[15\]
*1496 ANTENNA_adc2_config_1_in\[1\]
*1497 ANTENNA_adc2_config_1_in\[2\]
*1498 ANTENNA_adc2_config_1_in\[3\]
*1499 ANTENNA_adc2_config_1_in\[4\]
*1500 ANTENNA_adc2_config_1_in\[5\]
*1501 ANTENNA_adc2_config_1_in\[6\]
*1502 ANTENNA_adc2_config_1_in\[7\]
*1503 ANTENNA_adc2_config_1_in\[8\]
*1504 ANTENNA_adc2_config_1_in\[9\]
*1505 ANTENNA_adc2_config_2_in\[0\]
*1506 ANTENNA_adc2_config_2_in\[10\]
*1507 ANTENNA_adc2_config_2_in\[11\]
*1508 ANTENNA_adc2_config_2_in\[12\]
*1509 ANTENNA_adc2_config_2_in\[13\]
*1510 ANTENNA_adc2_config_2_in\[14\]
*1511 ANTENNA_adc2_config_2_in\[15\]
*1512 ANTENNA_adc2_config_2_in\[1\]
*1513 ANTENNA_adc2_config_2_in\[2\]
*1514 ANTENNA_adc2_config_2_in\[3\]