*SPEF "ieee 1481-1999"
*DESIGN "signal_generator"
*DATE "11:11:11 Fri 11 11, 1111"
*VENDOR "OpenRCX"
*PROGRAM "Parallel Extraction"
*VERSION "1.0"
*DESIGN_FLOW "NAME_SCOPE LOCAL" "PIN_CAP NONE"
*DIVIDER /
*DELIMITER :
*BUS_DELIMITER []
*T_UNIT 1 NS
*C_UNIT 1 PF
*R_UNIT 1 OHM
*L_UNIT 1 HENRY

*NAME_MAP
*1 io_analog[0]
*2 io_analog[10]
*3 io_analog[1]
*4 io_analog[2]
*5 io_analog[3]
*6 io_analog[4]
*7 io_analog[5]
*8 io_analog[6]
*9 io_analog[7]
*10 io_analog[8]
*11 io_analog[9]
*12 io_in[0]
*13 io_in[10]
*14 io_in[11]
*15 io_in[12]
*16 io_in[13]
*17 io_in[14]
*18 io_in[15]
*19 io_in[16]
*20 io_in[17]
*21 io_in[18]
*22 io_in[19]
*23 io_in[1]
*24 io_in[20]
*25 io_in[21]
*26 io_in[22]
*27 io_in[23]
*28 io_in[24]
*29 io_in[25]
*30 io_in[26]
*31 io_in[2]
*32 io_in[3]
*33 io_in[4]
*34 io_in[5]
*35 io_in[6]
*36 io_in[7]
*37 io_in[8]
*38 io_in[9]
*39 net194
*40 net204
*41 net205
*42 net206
*43 net207
*44 net208
*45 net209
*46 net210
*47 net211
*48 net212
*49 net213
*50 net195
*51 net214
*52 net215
*53 net216
*54 net217
*55 net218
*56 net219
*57 net220
*58 net196
*59 net197
*60 net198
*61 net199
*62 net200
*63 net201
*64 net202
*65 net203
*66 net221
*67 io_out[10]
*68 io_out[11]
*69 io_out[12]
*70 io_out[13]
*71 io_out[14]
*72 io_out[15]
*73 io_out[16]
*74 io_out[17]
*75 net228
*76 net229
*77 net222
*78 net230
*79 net231
*80 net232
*81 net233
*82 net234
*83 net235
*84 net236
*85 net223
*86 net224
*87 net225
*88 net226
*89 net227
*90 io_out[7]
*91 io_out[8]
*92 io_out[9]
*95 wb_clk_i
*96 wb_rst_i
*97 wbs_ack_o
*98 wbs_adr_i[0]
*99 wbs_adr_i[10]
*100 wbs_adr_i[11]
*101 wbs_adr_i[12]
*102 wbs_adr_i[13]
*103 wbs_adr_i[14]
*104 wbs_adr_i[15]
*105 wbs_adr_i[16]
*106 wbs_adr_i[17]
*107 wbs_adr_i[18]
*108 wbs_adr_i[19]
*109 wbs_adr_i[1]
*110 wbs_adr_i[20]
*111 wbs_adr_i[21]
*112 wbs_adr_i[22]
*113 wbs_adr_i[23]
*114 wbs_adr_i[24]
*115 wbs_adr_i[25]
*116 wbs_adr_i[26]
*117 wbs_adr_i[27]
*118 wbs_adr_i[28]
*119 wbs_adr_i[29]
*120 wbs_adr_i[2]
*121 wbs_adr_i[30]
*122 wbs_adr_i[31]
*123 wbs_adr_i[3]
*124 wbs_adr_i[4]
*125 wbs_adr_i[5]
*126 wbs_adr_i[6]
*127 wbs_adr_i[7]
*128 wbs_adr_i[8]
*129 wbs_adr_i[9]
*130 wbs_cyc_i
*131 wbs_dat_i[0]
*132 wbs_dat_i[10]
*133 wbs_dat_i[11]
*134 wbs_dat_i[12]
*135 wbs_dat_i[13]
*136 wbs_dat_i[14]
*137 wbs_dat_i[15]
*138 wbs_dat_i[16]
*139 wbs_dat_i[17]
*140 wbs_dat_i[18]
*141 wbs_dat_i[19]
*142 wbs_dat_i[1]
*143 wbs_dat_i[20]
*144 wbs_dat_i[21]
*145 wbs_dat_i[22]
*146 wbs_dat_i[23]
*147 wbs_dat_i[24]
*148 wbs_dat_i[25]
*149 wbs_dat_i[26]
*150 wbs_dat_i[27]
*151 wbs_dat_i[28]
*152 wbs_dat_i[29]
*153 wbs_dat_i[2]
*154 wbs_dat_i[30]
*155 wbs_dat_i[31]
*156 wbs_dat_i[3]
*157 wbs_dat_i[4]
*158 wbs_dat_i[5]
*159 wbs_dat_i[6]
*160 wbs_dat_i[7]
*161 wbs_dat_i[8]
*162 wbs_dat_i[9]
*163 wbs_dat_o[0]
*164 net246
*165 net247
*166 net248
*167 net249
*168 net250
*169 net251
*170 net252
*171 net253
*172 net254
*173 net255
*174 net237
*175 net256
*176 net257
*177 net258
*178 net259
*179 net260
*180 net261
*181 net262
*182 net263
*183 net264
*184 net265
*185 net238
*186 net266
*187 net267
*188 net239
*189 net240
*190 net241
*191 net242
*192 net243
*193 net244
*194 net245
*195 wbs_sel_i[0]
*196 wbs_sel_i[1]
*197 wbs_sel_i[2]
*198 wbs_sel_i[3]
*199 wbs_stb_i
*200 wbs_we_i
*201 _0000_
*202 _0001_
*203 _0002_
*204 _0003_
*205 _0004_
*206 _0005_
*207 _0006_
*208 _0007_
*209 _0008_
*210 _0009_
*211 _0010_
*212 _0011_
*213 _0012_
*214 _0013_
*215 _0014_
*216 _0015_
*217 _0016_
*218 _0017_
*219 _0018_
*220 _0019_
*221 _0020_
*222 _0021_
*223 _0022_
*224 _0023_
*225 _0024_
*226 _0025_
*227 _0026_
*228 _0027_
*229 _0028_
*230 _0029_
*231 _0030_
*232 _0031_
*233 _0032_
*234 _0033_
*235 _0034_
*236 _0035_
*237 _0036_
*238 _0037_
*239 _0038_
*240 _0039_
*241 _0040_
*242 _0041_
*243 _0042_
*244 _0043_
*245 _0044_
*246 _0045_
*247 _0046_
*248 _0047_
*249 _0048_
*250 _0049_
*251 _0050_
*252 _0051_
*253 _0052_
*254 _0053_
*255 _0054_
*256 _0055_
*257 _0056_
*258 _0057_
*259 _0058_
*260 _0059_
*261 _0060_
*262 _0061_
*263 _0062_
*264 _0063_
*265 _0064_
*266 _0065_
*267 _0066_
*268 _0067_
*269 _0068_
*270 _0069_
*271 _0070_
*272 _0071_
*273 _0072_
*274 _0073_
*275 _0074_
*276 _0075_
*277 _0076_
*278 _0077_
*279 _0078_
*280 _0079_
*281 _0080_
*282 _0081_
*283 _0082_
*284 _0083_
*285 _0084_
*286 _0085_
*287 _0086_
*288 _0087_
*289 _0088_
*290 _0089_
*291 _0090_
*292 _0091_
*293 _0092_
*294 _0093_
*295 _0094_
*296 _0095_
*297 _0096_
*298 _0097_
*299 _0098_
*300 _0099_
*301 _0100_
*302 _0101_
*303 _0102_
*304 _0103_
*305 _0104_
*306 _0105_
*307 _0106_
*308 _0107_
*309 _0108_
*310 _0109_
*311 _0110_
*312 _0111_
*313 _0112_
*314 _0113_
*315 _0114_
*316 _0115_
*317 _0116_
*318 _0117_
*319 _0118_
*320 _0119_
*321 _0120_
*322 _0121_
*323 _0122_
*324 _0123_
*325 _0124_
*326 _0125_
*327 _0126_
*328 _0127_
*329 _0128_
*330 _0129_
*331 _0130_
*332 _0131_
*333 _0132_
*334 _0133_
*335 _0134_
*336 _0135_
*337 _0136_
*338 _0137_
*339 _0138_
*340 _0139_
*341 _0140_
*342 _0141_
*343 _0142_
*344 _0143_
*345 _0144_
*346 _0145_
*347 _0146_
*348 _0147_
*349 _0148_
*350 _0149_
*351 _0150_
*352 _0151_
*353 _0152_
*354 _0153_
*355 _0154_
*356 _0155_
*357 _0156_
*358 _0157_
*359 _0158_
*360 _0159_
*361 _0160_
*362 _0161_
*363 _0162_
*364 _0163_
*365 _0164_
*366 _0165_
*367 _0166_
*368 _0167_
*369 _0168_
*370 _0169_
*371 _0170_
*372 _0171_
*373 _0172_
*374 _0173_
*375 _0174_
*376 _0175_
*377 _0176_
*378 _0177_
*379 _0178_
*380 _0179_
*381 _0180_
*382 _0181_
*383 _0182_
*384 _0183_
*385 _0184_
*386 _0185_
*387 _0186_
*388 _0187_
*389 _0188_
*390 _0189_
*391 _0190_
*392 _0191_
*393 _0192_
*394 _0193_
*395 _0194_
*396 _0195_
*397 _0196_
*398 _0197_
*399 _0198_
*400 _0199_
*401 _0200_
*402 _0201_
*403 _0202_
*404 _0203_
*405 _0204_
*406 _0205_
*407 _0206_
*408 _0207_
*409 _0208_
*410 _0209_
*411 _0210_
*412 _0211_
*413 _0212_
*414 _0213_
*415 _0214_
*416 _0215_
*417 _0216_
*418 _0217_
*419 _0218_
*420 _0219_
*421 _0220_
*422 _0221_
*423 _0222_
*424 _0223_
*425 _0224_
*426 _0225_
*427 _0226_
*428 _0227_
*429 _0228_
*430 _0229_
*431 _0230_
*432 _0231_
*433 _0232_
*434 _0233_
*435 _0234_
*436 _0235_
*437 _0236_
*438 _0237_
*439 _0238_
*440 _0239_
*441 _0240_
*442 _0241_
*443 _0242_
*444 _0243_
*445 _0244_
*446 _0245_
*447 _0246_
*448 _0247_
*449 _0248_
*450 _0249_
*451 _0250_
*452 _0251_
*453 _0252_
*454 _0253_
*455 _0254_
*456 _0255_
*457 _0256_
*458 _0257_
*459 _0258_
*460 _0259_
*461 _0260_
*462 _0261_
*463 _0262_
*464 _0263_
*465 _0264_
*466 _0265_
*467 _0266_
*468 _0267_
*469 _0268_
*470 _0269_
*471 _0270_
*472 _0271_
*473 _0272_
*474 _0273_
*475 _0274_
*476 _0275_
*477 _0276_
*478 _0277_
*479 _0278_
*480 _0279_
*481 _0280_
*482 _0281_
*483 _0282_
*484 _0283_
*485 _0284_
*486 _0285_
*487 _0286_
*488 _0287_
*489 _0288_
*490 _0289_
*491 _0290_
*492 _0291_
*493 _0292_
*494 _0293_
*495 _0294_
*496 _0295_
*497 _0296_
*498 _0297_
*499 _0298_
*500 _0299_
*501 _0300_
*502 _0301_
*503 _0302_
*504 _0303_
*505 _0304_
*506 _0305_
*507 _0306_
*508 _0307_
*509 _0308_
*510 _0309_
*511 _0310_
*512 _0311_
*513 _0312_
*514 _0313_
*515 _0314_
*516 _0315_
*517 _0316_
*518 _0317_
*519 _0318_
*520 _0319_
*521 _0320_
*522 _0321_
*523 _0322_
*524 _0323_
*525 _0324_
*526 _0325_
*527 _0326_
*528 _0327_
*529 _0328_
*530 _0329_
*531 _0330_
*532 _0331_
*533 _0332_
*534 _0333_
*535 _0334_
*536 _0335_
*537 _0336_
*538 _0337_
*539 _0338_
*540 _0339_
*541 _0340_
*542 _0341_
*543 _0342_
*544 _0343_
*545 _0344_
*546 _0345_
*547 _0346_
*548 _0347_
*549 _0348_
*550 _0349_
*551 _0350_
*552 _0351_
*553 _0352_
*554 _0353_
*555 _0354_
*556 _0355_
*557 _0356_
*558 _0357_
*559 _0358_
*560 _0359_
*561 _0360_
*562 _0361_
*563 _0362_
*564 _0363_
*565 _0364_
*566 _0365_
*567 _0366_
*568 _0367_
*569 _0368_
*570 _0369_
*571 _0370_
*572 _0371_
*573 _0372_
*574 _0373_
*575 _0374_
*576 _0375_
*577 _0376_
*578 _0377_
*579 _0378_
*580 _0379_
*581 _0380_
*582 _0381_
*583 _0382_
*584 _0383_
*585 _0384_
*586 _0385_
*587 _0386_
*588 _0387_
*589 _0388_
*590 _0389_
*591 _0390_
*592 _0391_
*593 _0392_
*594 _0393_
*595 _0394_
*596 _0395_
*597 _0396_
*598 _0397_
*599 _0398_
*600 _0399_
*601 _0400_
*602 _0401_
*603 _0402_
*604 _0403_
*605 _0404_
*606 _0405_
*607 _0406_
*608 _0407_
*609 _0408_
*610 _0409_
*611 _0410_
*612 _0411_
*613 _0412_
*614 _0413_
*615 _0414_
*616 _0415_
*617 _0416_
*618 _0417_
*619 _0418_
*620 _0419_
*621 _0420_
*622 _0421_
*623 _0422_
*624 _0423_
*625 _0424_
*626 _0425_
*627 _0426_
*628 _0427_
*629 _0428_
*630 _0429_
*631 _0430_
*632 _0431_
*633 _0432_
*634 _0433_
*635 _0434_
*636 _0435_
*637 _0436_
*638 _0437_
*639 _0438_
*640 _0439_
*641 _0440_
*642 _0441_
*643 _0442_
*644 _0443_
*645 _0444_
*646 _0445_
*647 _0446_
*648 _0447_
*649 _0448_
*650 _0449_
*651 _0450_
*652 _0451_
*653 _0452_
*654 _0453_
*655 _0454_
*656 _0455_
*657 _0456_
*658 _0457_
*659 _0458_
*660 _0459_
*661 _0460_
*662 adc_bridge1\.adc_cfg1\[0\]
*663 adc_bridge1\.adc_cfg1\[10\]
*664 adc_bridge1\.adc_cfg1\[11\]
*665 adc_bridge1\.adc_cfg1\[12\]
*666 adc_bridge1\.adc_cfg1\[13\]
*667 adc_bridge1\.adc_cfg1\[14\]
*668 adc_bridge1\.adc_cfg1\[15\]
*669 adc_bridge1\.adc_cfg1\[1\]
*670 adc_bridge1\.adc_cfg1\[2\]
*671 adc_bridge1\.adc_cfg1\[3\]
*672 adc_bridge1\.adc_cfg1\[4\]
*673 adc_bridge1\.adc_cfg1\[5\]
*674 adc_bridge1\.adc_cfg1\[6\]
*675 adc_bridge1\.adc_cfg1\[7\]
*676 adc_bridge1\.adc_cfg1\[8\]
*677 adc_bridge1\.adc_cfg1\[9\]
*678 adc_bridge1\.adc_cfg2\[0\]
*679 adc_bridge1\.adc_cfg2\[10\]
*680 adc_bridge1\.adc_cfg2\[11\]
*681 adc_bridge1\.adc_cfg2\[12\]
*682 adc_bridge1\.adc_cfg2\[13\]
*683 adc_bridge1\.adc_cfg2\[14\]
*684 adc_bridge1\.adc_cfg2\[15\]
*685 adc_bridge1\.adc_cfg2\[1\]
*686 adc_bridge1\.adc_cfg2\[2\]
*687 adc_bridge1\.adc_cfg2\[3\]
*688 adc_bridge1\.adc_cfg2\[4\]
*689 adc_bridge1\.adc_cfg2\[5\]
*690 adc_bridge1\.adc_cfg2\[6\]
*691 adc_bridge1\.adc_cfg2\[7\]
*692 adc_bridge1\.adc_cfg2\[8\]
*693 adc_bridge1\.adc_cfg2\[9\]
*694 adc_bridge1\.adc_cfg_load_r\[0\]
*695 adc_bridge1\.adc_cfg_load_r\[10\]
*696 adc_bridge1\.adc_cfg_load_r\[11\]
*697 adc_bridge1\.adc_cfg_load_r\[12\]
*698 adc_bridge1\.adc_cfg_load_r\[13\]
*699 adc_bridge1\.adc_cfg_load_r\[14\]
*700 adc_bridge1\.adc_cfg_load_r\[15\]
*701 adc_bridge1\.adc_cfg_load_r\[16\]
*702 adc_bridge1\.adc_cfg_load_r\[17\]
*703 adc_bridge1\.adc_cfg_load_r\[18\]
*704 adc_bridge1\.adc_cfg_load_r\[19\]
*705 adc_bridge1\.adc_cfg_load_r\[1\]
*706 adc_bridge1\.adc_cfg_load_r\[20\]
*707 adc_bridge1\.adc_cfg_load_r\[21\]
*708 adc_bridge1\.adc_cfg_load_r\[22\]
*709 adc_bridge1\.adc_cfg_load_r\[23\]
*710 adc_bridge1\.adc_cfg_load_r\[24\]
*711 adc_bridge1\.adc_cfg_load_r\[25\]
*712 adc_bridge1\.adc_cfg_load_r\[26\]
*713 adc_bridge1\.adc_cfg_load_r\[27\]
*714 adc_bridge1\.adc_cfg_load_r\[28\]
*715 adc_bridge1\.adc_cfg_load_r\[29\]
*716 adc_bridge1\.adc_cfg_load_r\[2\]
*717 adc_bridge1\.adc_cfg_load_r\[30\]
*718 adc_bridge1\.adc_cfg_load_r\[31\]
*719 adc_bridge1\.adc_cfg_load_r\[32\]
*720 adc_bridge1\.adc_cfg_load_r\[3\]
*721 adc_bridge1\.adc_cfg_load_r\[4\]
*722 adc_bridge1\.adc_cfg_load_r\[5\]
*723 adc_bridge1\.adc_cfg_load_r\[6\]
*724 adc_bridge1\.adc_cfg_load_r\[7\]
*725 adc_bridge1\.adc_cfg_load_r\[8\]
*726 adc_bridge1\.adc_cfg_load_r\[9\]
*727 adc_bridge1\.adc_cfg_written_r
*728 adc_bridge1\.adc_conv_finished
*729 adc_bridge1\.adc_conv_finished_osr
*730 adc_bridge1\.adc_res\[0\]
*731 adc_bridge1\.adc_res\[10\]
*732 adc_bridge1\.adc_res\[11\]
*733 adc_bridge1\.adc_res\[12\]
*734 adc_bridge1\.adc_res\[13\]
*735 adc_bridge1\.adc_res\[14\]
*736 adc_bridge1\.adc_res\[15\]
*737 adc_bridge1\.adc_res\[1\]
*738 adc_bridge1\.adc_res\[2\]
*739 adc_bridge1\.adc_res\[3\]
*740 adc_bridge1\.adc_res\[4\]
*741 adc_bridge1\.adc_res\[5\]
*742 adc_bridge1\.adc_res\[6\]
*743 adc_bridge1\.adc_res\[7\]
*744 adc_bridge1\.adc_res\[8\]
*745 adc_bridge1\.adc_res\[9\]
*746 adc_bridge1\.adc_res_r\[0\]
*747 adc_bridge1\.adc_res_r\[10\]
*748 adc_bridge1\.adc_res_r\[11\]
*749 adc_bridge1\.adc_res_r\[12\]
*750 adc_bridge1\.adc_res_r\[13\]
*751 adc_bridge1\.adc_res_r\[14\]
*752 adc_bridge1\.adc_res_r\[15\]
*753 adc_bridge1\.adc_res_r\[16\]
*754 adc_bridge1\.adc_res_r\[17\]
*755 adc_bridge1\.adc_res_r\[18\]
*756 adc_bridge1\.adc_res_r\[19\]
*757 adc_bridge1\.adc_res_r\[1\]
*758 adc_bridge1\.adc_res_r\[2\]
*759 adc_bridge1\.adc_res_r\[3\]
*760 adc_bridge1\.adc_res_r\[4\]
*761 adc_bridge1\.adc_res_r\[5\]
*762 adc_bridge1\.adc_res_r\[6\]
*763 adc_bridge1\.adc_res_r\[7\]
*764 adc_bridge1\.adc_res_r\[8\]
*765 adc_bridge1\.adc_res_r\[9\]
*766 adc_bridge1\.clk
*767 adc_bridge1\.conv_finish
*768 adc_bridge1\.conv_finish_sel
*769 adc_bridge2\.adc_conv_finished
*770 adc_bridge2\.adc_conv_finished_osr
*771 adc_bridge2\.adc_res\[0\]
*772 adc_bridge2\.adc_res\[10\]
*773 adc_bridge2\.adc_res\[11\]
*774 adc_bridge2\.adc_res\[12\]
*775 adc_bridge2\.adc_res\[13\]
*776 adc_bridge2\.adc_res\[14\]
*777 adc_bridge2\.adc_res\[15\]
*778 adc_bridge2\.adc_res\[1\]
*779 adc_bridge2\.adc_res\[2\]
*780 adc_bridge2\.adc_res\[3\]
*781 adc_bridge2\.adc_res\[4\]
*782 adc_bridge2\.adc_res\[5\]
*783 adc_bridge2\.adc_res\[6\]
*784 adc_bridge2\.adc_res\[7\]
*785 adc_bridge2\.adc_res\[8\]
*786 adc_bridge2\.adc_res\[9\]
*787 adc_bridge2\.adc_res_r\[0\]
*788 adc_bridge2\.adc_res_r\[10\]
*789 adc_bridge2\.adc_res_r\[11\]
*790 adc_bridge2\.adc_res_r\[12\]
*791 adc_bridge2\.adc_res_r\[13\]
*792 adc_bridge2\.adc_res_r\[14\]
*793 adc_bridge2\.adc_res_r\[15\]
*794 adc_bridge2\.adc_res_r\[16\]
*795 adc_bridge2\.adc_res_r\[17\]
*796 adc_bridge2\.adc_res_r\[1\]
*797 adc_bridge2\.adc_res_r\[2\]
*798 adc_bridge2\.adc_res_r\[3\]
*799 adc_bridge2\.adc_res_r\[4\]
*800 adc_bridge2\.adc_res_r\[5\]
*801 adc_bridge2\.adc_res_r\[6\]
*802 adc_bridge2\.adc_res_r\[7\]
*803 adc_bridge2\.adc_res_r\[8\]
*804 adc_bridge2\.adc_res_r\[9\]
*805 adc_bridge2\.conv_finish
*806 analog_signal_gen0\.contador_flancos\[0\]
*807 analog_signal_gen0\.contador_flancos\[1\]
*808 analog_signal_gen0\.contador_flancos\[2\]
*809 analog_signal_gen0\.i_phi_l2
*810 analog_signal_gen0\.i_phi_p
*811 analog_signal_gen0\.o_adc_start_convertion
*812 analog_signal_gen0\.o_pixel_flag
*813 ciclos\[0\]
*814 ciclos\[1\]
*815 contador\[0\]
*816 contador\[10\]
*817 contador\[11\]
*818 contador\[12\]
*819 contador\[13\]
*820 contador\[14\]
*821 contador\[15\]
*822 contador\[16\]
*823 contador\[17\]
*824 contador\[18\]
*825 contador\[19\]
*826 contador\[1\]
*827 contador\[20\]
*828 contador\[21\]
*829 contador\[22\]
*830 contador\[23\]
*831 contador\[24\]
*832 contador\[25\]
*833 contador\[26\]
*834 contador\[27\]
*835 contador\[28\]
*836 contador\[29\]
*837 contador\[2\]
*838 contador\[30\]
*839 contador\[31\]
*840 contador\[3\]
*841 contador\[4\]
*842 contador\[5\]
*843 contador\[6\]
*844 contador\[7\]
*845 contador\[8\]
*846 contador\[9\]
*847 contador_waves\[0\]
*848 contador_waves\[10\]
*849 contador_waves\[11\]
*850 contador_waves\[12\]
*851 contador_waves\[13\]
*852 contador_waves\[1\]
*853 contador_waves\[2\]
*854 contador_waves\[3\]
*855 contador_waves\[4\]
*856 contador_waves\[5\]
*857 contador_waves\[6\]
*858 contador_waves\[7\]
*859 contador_waves\[8\]
*860 contador_waves\[9\]
*861 estado\[0\]
*862 estado\[1\]
*863 f_sel_bit_counter\[0\]
*864 f_sel_bit_counter\[1\]
*865 f_sel_bit_counter\[2\]
*866 f_sel_sr\[0\]
*867 f_sel_sr\[1\]
*868 f_sel_sr\[2\]
*869 f_sel_sr\[3\]
*870 f_selected\[0\]
*871 f_selected\[1\]
*872 f_selected\[2\]
*873 f_selected\[3\]
*874 i_adc_data_n_ch1_buff
*875 i_adc_data_n_ch2_buff
*876 i_adc_data_p_ch1_buff
*877 i_adc_data_p_ch2_buff
*878 i_clk_wb
*879 i_enable_wb
*880 i_f_select\[0\]
*881 i_f_select\[1\]
*882 i_f_select\[2\]
*883 i_f_select\[3\]
*884 i_f_select_wb\[0\]
*885 i_f_select_wb\[1\]
*886 i_f_select_wb\[2\]
*887 i_f_select_wb\[3\]
*888 i_test_reg
*889 net1
*890 net10
*891 net100
*892 net101
*893 net102
*894 net103
*895 net104
*896 net105
*897 net106
*898 net107
*899 net108
*900 net109
*901 net11
*902 net110
*903 net111
*904 net112
*905 net113
*906 net114
*907 net115
*908 net116
*909 net117
*910 net118
*911 net119
*912 net12
*913 net120
*914 net121
*915 net122
*916 net123
*917 net124
*918 net125
*919 net126
*920 net127
*921 net128
*922 net129
*923 net13
*924 net130
*925 net131
*926 net132
*927 net133
*928 net134
*929 net135
*930 net136
*931 net137
*932 net138
*933 net139
*934 net14
*935 net140
*936 net141
*937 net142
*938 net143
*939 net144
*940 net145
*941 net146
*942 net147
*943 net148
*944 net149
*945 net15
*946 net150
*947 net151
*948 net152
*949 net153
*950 net154
*951 net155
*952 net156
*953 net157
*954 net158
*955 net159
*956 net16
*957 net160
*958 net161
*959 net162
*960 net163
*961 net164
*962 net165
*963 net166
*964 net167
*965 net168
*966 net169
*967 net17
*968 net170
*969 net171
*970 net172
*971 net173
*972 net174
*973 net175
*974 net176
*975 net177
*976 net178
*977 net179
*978 net18
*979 net180
*980 net181
*981 net182
*982 net183
*983 net184
*984 net185
*985 net186
*986 net187
*987 net188
*988 net189
*989 net19
*990 net190
*991 net191
*992 net192
*993 net193
*994 net2
*995 net20
*996 net21
*997 net22
*998 net23
*999 net24
*1000 net25
*1001 net26
*1002 net268
*1003 net269
*1004 net27
*1005 net270
*1006 net271
*1007 net28
*1008 net29
*1009 net3
*1010 net30
*1011 net31
*1012 net32
*1013 net33
*1014 net34
*1015 net35
*1016 net36
*1017 net37
*1018 net38
*1019 net39
*1020 net4
*1021 net40
*1022 net41
*1023 net42
*1024 net43
*1025 net44
*1026 net45
*1027 net46
*1028 net47
*1029 net48
*1030 net49
*1031 net5
*1032 net50
*1033 net51
*1034 net52
*1035 net53
*1036 net54
*1037 net55
*1038 net56
*1039 net57
*1040 net58
*1041 net59
*1042 net6
*1043 net60
*1044 net61
*1045 net62
*1046 net63
*1047 net64
*1048 net65
*1049 net66
*1050 net67
*1051 net68
*1052 net69
*1053 net7
*1054 net70
*1055 net71
*1056 net72
*1057 net73
*1058 net74
*1059 net75
*1060 net76
*1061 net77
*1062 net78
*1063 net79
*1064 net8
*1065 net80
*1066 net81
*1067 net82
*1068 net83
*1069 net84
*1070 net85
*1071 net86
*1072 net87
*1073 net88
*1074 net89
*1075 net9
*1076 net90
*1077 net91
*1078 net92
*1079 net93
*1080 net94
*1081 net95
*1082 net96
*1083 net97
*1084 net98
*1085 net99
*1086 o_phi_l1
*1087 o_phi_r
*1088 o_test\[0\]
*1089 o_test\[1\]
*1090 o_test\[2\]
*1091 pulse_ended
*1092 ANTENNA_1
*1093 ANTENNA__0466__A
*1094 ANTENNA__0470__A
*1095 ANTENNA__0471__A
*1096 ANTENNA__0472__A
*1097 ANTENNA__0473__A
*1098 ANTENNA__0474__A
*1099 ANTENNA__0476__A
*1100 ANTENNA__0476__B
*1101 ANTENNA__0477__A
*1102 ANTENNA__0477__B
*1103 ANTENNA__0478__A_N
*1104 ANTENNA__0479__A
*1105 ANTENNA__0480__A2
*1106 ANTENNA__0480__A3
*1107 ANTENNA__0480__B1
*1108 ANTENNA__0481__A1
*1109 ANTENNA__0481__A2
*1110 ANTENNA__0481__B1
*1111 ANTENNA__0482__A
*1112 ANTENNA__0483__A_N
*1113 ANTENNA__0483__B
*1114 ANTENNA__0484__A
*1115 ANTENNA__0485__A_N
*1116 ANTENNA__0486__S
*1117 ANTENNA__0487__S
*1118 ANTENNA__0488__S
*1119 ANTENNA__0489__S
*1120 ANTENNA__0490__S
*1121 ANTENNA__0491__S
*1122 ANTENNA__0492__S
*1123 ANTENNA__0493__S
*1124 ANTENNA__0494__S
*1125 ANTENNA__0495__S
*1126 ANTENNA__0496__S
*1127 ANTENNA__0497__S
*1128 ANTENNA__0498__S
*1129 ANTENNA__0499__S
*1130 ANTENNA__0500__S
*1131 ANTENNA__0501__A0
*1132 ANTENNA__0501__S
*1133 ANTENNA__0502__A0
*1134 ANTENNA__0502__A1
*1135 ANTENNA__0502__S
*1136 ANTENNA__0503__A
*1137 ANTENNA__0504__A_N
*1138 ANTENNA__0505__S
*1139 ANTENNA__0506__S
*1140 ANTENNA__0507__S
*1141 ANTENNA__0508__S
*1142 ANTENNA__0509__S
*1143 ANTENNA__0510__S
*1144 ANTENNA__0511__S
*1145 ANTENNA__0512__S
*1146 ANTENNA__0513__S
*1147 ANTENNA__0514__S
*1148 ANTENNA__0515__S
*1149 ANTENNA__0516__S
*1150 ANTENNA__0517__S
*1151 ANTENNA__0518__S
*1152 ANTENNA__0519__S
*1153 ANTENNA__0520__A0
*1154 ANTENNA__0520__S
*1155 ANTENNA__0521__A_N
*1156 ANTENNA__0522__S
*1157 ANTENNA__0523__A_N
*1158 ANTENNA__0523__B
*1159 ANTENNA__0524__A1
*1160 ANTENNA__0525__B
*1161 ANTENNA__0530__C
*1162 ANTENNA__0536__A
*1163 ANTENNA__0536__B
*1164 ANTENNA__0536__C
*1165 ANTENNA__0538__A
*1166 ANTENNA__0539__A
*1167 ANTENNA__0539__B
*1168 ANTENNA__0539__D_N
*1169 ANTENNA__0540__A
*1170 ANTENNA__0540__C
*1171 ANTENNA__0540__D
*1172 ANTENNA__0541__A
*1173 ANTENNA__0541__B
*1174 ANTENNA__0541__C
*1175 ANTENNA__0542__A1
*1176 ANTENNA__0542__A2
*1177 ANTENNA__0542__A3
*1178 ANTENNA__0543__A1
*1179 ANTENNA__0543__A2
*1180 ANTENNA__0544__A2
*1181 ANTENNA__0544__B1
*1182 ANTENNA__0545__A1
*1183 ANTENNA__0546__A
*1184 ANTENNA__0546__C
*1185 ANTENNA__0546__D_N
*1186 ANTENNA__0547__A1
*1187 ANTENNA__0547__A2
*1188 ANTENNA__0547__A3
*1189 ANTENNA__0547__B1
*1190 ANTENNA__0547__C1
*1191 ANTENNA__0548__A
*1192 ANTENNA__0548__C
*1193 ANTENNA__0548__D
*1194 ANTENNA__0549__A1
*1195 ANTENNA__0549__A2
*1196 ANTENNA__0549__A3
*1197 ANTENNA__0549__A4
*1198 ANTENNA__0549__B1
*1199 ANTENNA__0550__A1
*1200 ANTENNA__0550__A2
*1201 ANTENNA__0550__B1
*1202 ANTENNA__0550__B2
*1203 ANTENNA__0552__B
*1204 ANTENNA__0553__B
*1205 ANTENNA__0554__A2
*1206 ANTENNA__0557__A
*1207 ANTENNA__0557__B
*1208 ANTENNA__0557__D_N
*1209 ANTENNA__0559__A_N
*1210 ANTENNA__0559__B
*1211 ANTENNA__0560__A_N
*1212 ANTENNA__0560__B
*1213 ANTENNA__0561__A_N
*1214 ANTENNA__0561__B
*1215 ANTENNA__0562__C
*1216 ANTENNA__0562__D_N
*1217 ANTENNA__0563__A
*1218 ANTENNA__0563__B
*1219 ANTENNA__0564__A0
*1220 ANTENNA__0564__A1
*1221 ANTENNA__0565__A0
*1222 ANTENNA__0565__A1
*1223 ANTENNA__0566__A0
*1224 ANTENNA__0566__A1
*1225 ANTENNA__0567__A
*1226 ANTENNA__0567__B
*1227 ANTENNA__0567__C
*1228 ANTENNA__0568__A
*1229 ANTENNA__0569__A0
*1230 ANTENNA__0571__A0
*1231 ANTENNA__0572__B
*1232 ANTENNA__0572__C
*1233 ANTENNA__0572__D
*1234 ANTENNA__0574__A0
*1235 ANTENNA__0574__A1
*1236 ANTENNA__0575__A0
*1237 ANTENNA__0575__A1
*1238 ANTENNA__0576__A0
*1239 ANTENNA__0576__A1
*1240 ANTENNA__0578__A1
*1241 ANTENNA__0579__A1
*1242 ANTENNA__0579__B1
*1243 ANTENNA__0580__B
*1244 ANTENNA__0580__C
*1245 ANTENNA__0581__A1
*1246 ANTENNA__0581__A2
*1247 ANTENNA__0635__B1
*1248 ANTENNA__0636__A2
*1249 ANTENNA__0636__C1
*1250 ANTENNA__0637__A
*1251 ANTENNA__0638__A
*1252 ANTENNA__0640__A
*1253 ANTENNA__0646__A_N
*1254 ANTENNA__0647__A
*1255 ANTENNA__0660__A
*1256 ANTENNA__0661__B
*1257 ANTENNA__0690__B2
*1258 ANTENNA__0692__A2
*1259 ANTENNA__0718__A
*1260 ANTENNA__0720__A1
*1261 ANTENNA__0721__A1
*1262 ANTENNA__0725__A2
*1263 ANTENNA__0736__B1_N
*1264 ANTENNA__0737__B
*1265 ANTENNA__0737__C
*1266 ANTENNA__0738__A1
*1267 ANTENNA__0738__A2
*1268 ANTENNA__0738__B1
*1269 ANTENNA__0738__C1
*1270 ANTENNA__0739__A1
*1271 ANTENNA__0739__A2
*1272 ANTENNA__0740__B
*1273 ANTENNA__0741__B
*1274 ANTENNA__0742__B1
*1275 ANTENNA__0745__B
*1276 ANTENNA__0748__B
*1277 ANTENNA__0749__B1
*1278 ANTENNA__0753__B
*1279 ANTENNA__0756__B
*1280 ANTENNA__0757__B1_N
*1281 ANTENNA__0761__B
*1282 ANTENNA__0763__B1
*1283 ANTENNA__0765__B1
*1284 ANTENNA__0769__B
*1285 ANTENNA__0772__B
*1286 ANTENNA__0773__B1_N
*1287 ANTENNA__0777__B
*1288 ANTENNA__0784__B1
*1289 ANTENNA__0789__A
*1290 ANTENNA__0792__B
*1291 ANTENNA__0795__B
*1292 ANTENNA__0796__B1_N
*1293 ANTENNA__0800__B
*1294 ANTENNA__0803__B
*1295 ANTENNA__0804__B1_N
*1296 ANTENNA__0808__B
*1297 ANTENNA__0811__B
*1298 ANTENNA__0812__B1_N
*1299 ANTENNA__0816__B
*1300 ANTENNA__0819__B
*1301 ANTENNA__0820__B1_N
*1302 ANTENNA__0824__A
*1303 ANTENNA__0825__A0
*1304 ANTENNA__0825__A1
*1305 ANTENNA__0825__S
*1306 ANTENNA__0826__A
*1307 ANTENNA__0827__A2
*1308 ANTENNA__0828__A
*1309 ANTENNA__0829__A0
*1310 ANTENNA__0829__A1
*1311 ANTENNA__0829__S
*1312 ANTENNA__0830__A
*1313 ANTENNA__0831__A2
*1314 ANTENNA__0832__A
*1315 ANTENNA__0833__A0
*1316 ANTENNA__0833__A1
*1317 ANTENNA__0833__S
*1318 ANTENNA__0834__A
*1319 ANTENNA__0835__A2
*1320 ANTENNA__0835__B1
*1321 ANTENNA__0836__A
*1322 ANTENNA__0837__A0
*1323 ANTENNA__0837__A1
*1324 ANTENNA__0837__S
*1325 ANTENNA__0838__A
*1326 ANTENNA__0839__A2
*1327 ANTENNA__0840__A
*1328 ANTENNA__0841__B
*1329 ANTENNA__0841__D
*1330 ANTENNA__0842__A0
*1331 ANTENNA__0842__A1
*1332 ANTENNA__0842__S
*1333 ANTENNA__0843__A
*1334 ANTENNA__0844__A1
*1335 ANTENNA__0844__S
*1336 ANTENNA__0845__A
*1337 ANTENNA__0846__S
*1338 ANTENNA__0847__A
*1339 ANTENNA__0848__S
*1340 ANTENNA__0849__A
*1341 ANTENNA__0850__B1
*1342 ANTENNA__0851__A
*1343 ANTENNA__0852__A
*1344 ANTENNA__0854__A
*1345 ANTENNA__0855__A1
*1346 ANTENNA__0860__B
*1347 ANTENNA__0861__A0
*1348 ANTENNA__0861__S
*1349 ANTENNA__0862__A0
*1350 ANTENNA__0862__S
*1351 ANTENNA__0863__A0
*1352 ANTENNA__0863__S
*1353 ANTENNA__0864__A0
*1354 ANTENNA__0864__S
*1355 ANTENNA__0865__A0
*1356 ANTENNA__0865__S
*1357 ANTENNA__0866__A0
*1358 ANTENNA__0866__S
*1359 ANTENNA__0867__A0
*1360 ANTENNA__0867__S
*1361 ANTENNA__0868__A0
*1362 ANTENNA__0868__S
*1363 ANTENNA__0869__A0
*1364 ANTENNA__0869__S
*1365 ANTENNA__0870__A0
*1366 ANTENNA__0870__S
*1367 ANTENNA__0871__A0
*1368 ANTENNA__0871__S
*1369 ANTENNA__0872__A0
*1370 ANTENNA__0872__S
*1371 ANTENNA__0873__A0
*1372 ANTENNA__0873__S
*1373 ANTENNA__0874__A0
*1374 ANTENNA__0874__S
*1375 ANTENNA__0875__A0
*1376 ANTENNA__0875__S
*1377 ANTENNA__0876__A0
*1378 ANTENNA__0876__S
*1379 ANTENNA__0877__A0
*1380 ANTENNA__0877__S
*1381 ANTENNA__0878__A0
*1382 ANTENNA__0878__S
*1383 ANTENNA__0879__A0
*1384 ANTENNA__0879__S
*1385 ANTENNA__0880__A0
*1386 ANTENNA__0880__S
*1387 ANTENNA__0881__A0
*1388 ANTENNA__0881__S
*1389 ANTENNA__0882__A0
*1390 ANTENNA__0882__S
*1391 ANTENNA__0883__A0
*1392 ANTENNA__0883__S
*1393 ANTENNA__0884__A0
*1394 ANTENNA__0884__S
*1395 ANTENNA__0885__A0
*1396 ANTENNA__0885__S
*1397 ANTENNA__0886__A0
*1398 ANTENNA__0886__S
*1399 ANTENNA__0887__A0
*1400 ANTENNA__0887__S
*1401 ANTENNA__0888__A0
*1402 ANTENNA__0888__S
*1403 ANTENNA__0889__A0
*1404 ANTENNA__0889__S
*1405 ANTENNA__0890__A0
*1406 ANTENNA__0890__S
*1407 ANTENNA__0891__A0
*1408 ANTENNA__0891__S
*1409 ANTENNA__0892__A0
*1410 ANTENNA__0892__S
*1411 ANTENNA__0893__A0
*1412 ANTENNA__0893__S
*1413 ANTENNA__0894__S
*1414 ANTENNA__0903__S
*1415 ANTENNA__0904__S
*1416 ANTENNA__0905__S
*1417 ANTENNA__0906__S
*1418 ANTENNA__0907__S
*1419 ANTENNA__0908__S
*1420 ANTENNA__0909__S
*1421 ANTENNA__0910__S
*1422 ANTENNA__0911__S
*1423 ANTENNA__0912__S
*1424 ANTENNA__0913__S
*1425 ANTENNA__0914__S
*1426 ANTENNA__0915__S
*1427 ANTENNA__0916__S
*1428 ANTENNA__0917__S
*1429 ANTENNA__0918__S
*1430 ANTENNA__0919__S
*1431 ANTENNA__0920__S
*1432 ANTENNA__0921__S
*1433 ANTENNA__0922__S
*1434 ANTENNA__0923__S
*1435 ANTENNA__0924__S
*1436 ANTENNA__0925__S
*1437 ANTENNA__0926__S
*1438 ANTENNA__0927__D_N
*1439 ANTENNA__0928__A0
*1440 ANTENNA__0928__A1
*1441 ANTENNA__0929__A1
*1442 ANTENNA__0930__A1
*1443 ANTENNA__0931__A1
*1444 ANTENNA__0933__CLK
*1445 ANTENNA__0934__CLK
*1446 ANTENNA__0935__CLK
*1447 ANTENNA__0935__RESET_B
*1448 ANTENNA__0936__CLK
*1449 ANTENNA__0936__RESET_B
*1450 ANTENNA__0937__CLK
*1451 ANTENNA__0937__RESET_B
*1452 ANTENNA__0938__CLK
*1453 ANTENNA__0938__D
*1454 ANTENNA__0939__CLK
*1455 ANTENNA__0939__D
*1456 ANTENNA__0940__CLK
*1457 ANTENNA__0940__D
*1458 ANTENNA__0941__CLK
*1459 ANTENNA__0941__D
*1460 ANTENNA__0942__CLK
*1461 ANTENNA__0943__CLK
*1462 ANTENNA__0944__CLK
*1463 ANTENNA__0944__D
*1464 ANTENNA__0945__CLK
*1465 ANTENNA__0946__CLK
*1466 ANTENNA__0947__CLK
*1467 ANTENNA__0948__CLK
*1468 ANTENNA__0949__CLK
*1469 ANTENNA__0950__CLK
*1470 ANTENNA__0951__CLK
*1471 ANTENNA__0952__CLK
*1472 ANTENNA__0953__CLK
*1473 ANTENNA__0954__CLK
*1474 ANTENNA__0955__CLK
*1475 ANTENNA__0956__CLK
*1476 ANTENNA__0957__CLK
*1477 ANTENNA__0958__CLK
*1478 ANTENNA__0977__CLK
*1479 ANTENNA__0980__CLK
*1480 ANTENNA__0983__CLK
*1481 ANTENNA__0984__CLK
*1482 ANTENNA__0985__CLK
*1483 ANTENNA__0986__CLK
*1484 ANTENNA__0987__CLK
*1485 ANTENNA__0988__CLK
*1486 ANTENNA__0989__CLK
*1487 ANTENNA__0990__CLK
*1488 ANTENNA__0991__CLK
*1489 ANTENNA__0992__CLK
*1490 ANTENNA__0993__CLK
*1491 ANTENNA__0994__CLK
*1492 ANTENNA__0995__CLK
*1493 ANTENNA__0996__CLK
*1494 ANTENNA__0997__CLK
*1495 ANTENNA__0998__CLK
*1496 ANTENNA__0999__CLK
*1497 ANTENNA__1000__CLK
*1498 ANTENNA__1001__CLK
*1499 ANTENNA__1002__CLK
*1500 ANTENNA__1003__CLK
*1501 ANTENNA__1004__CLK
*1502 ANTENNA__1005__CLK
*1503 ANTENNA__1006__CLK
*1504 ANTENNA__1007__CLK
*1505 ANTENNA__1008__CLK
*1506 ANTENNA__1013__CLK
*1507 ANTENNA__1013__D
*1508 ANTENNA__1015__CLK
*1509 ANTENNA__1016__CLK
*1510 ANTENNA__1017__CLK
*1511 ANTENNA__1018__CLK
*1512 ANTENNA__1019__CLK
*1513 ANTENNA__1020__CLK
*1514 ANTENNA__1021__CLK
*1515 ANTENNA__1022__CLK
*1516 ANTENNA__1022__RESET_B
*1517 ANTENNA__1023__CLK
*1518 ANTENNA__1023__RESET_B
*1519 ANTENNA__1024__CLK
*1520 ANTENNA__1024__D
*1521 ANTENNA__1024__RESET_B
*1522 ANTENNA__1025__CLK
*1523 ANTENNA__1025__RESET_B
*1524 ANTENNA__1026__CLK
*1525 ANTENNA__1026__RESET_B
*1526 ANTENNA__1027__CLK
*1527 ANTENNA__1027__RESET_B
*1528 ANTENNA__1028__CLK
*1529 ANTENNA__1028__RESET_B
*1530 ANTENNA__1029__CLK
*1531 ANTENNA__1029__RESET_B
*1532 ANTENNA__1030__CLK
*1533 ANTENNA__1030__RESET_B
*1534 ANTENNA__1031__CLK
*1535 ANTENNA__1031__RESET_B
*1536 ANTENNA__1032__CLK
*1537 ANTENNA__1032__RESET_B
*1538 ANTENNA__1033__CLK
*1539 ANTENNA__1033__RESET_B
*1540 ANTENNA__1034__CLK
*1541 ANTENNA__1034__RESET_B
*1542 ANTENNA__1035__CLK
*1543 ANTENNA__1035__RESET_B
*1544 ANTENNA__1036__CLK
*1545 ANTENNA__1036__RESET_B
*1546 ANTENNA__1037__CLK
*1547 ANTENNA__1037__RESET_B
*1548 ANTENNA__1038__CLK
*1549 ANTENNA__1038__RESET_B
*1550 ANTENNA__1039__CLK
*1551 ANTENNA__1039__RESET_B
*1552 ANTENNA__1040__CLK
*1553 ANTENNA__1040__D
*1554 ANTENNA__1040__RESET_B
*1555 ANTENNA__1041__CLK
*1556 ANTENNA__1041__RESET_B
*1557 ANTENNA__1042__CLK
*1558 ANTENNA__1042__RESET_B
*1559 ANTENNA__1043__CLK
*1560 ANTENNA__1043__RESET_B
*1561 ANTENNA__1044__RESET_B
*1562 ANTENNA__1045__RESET_B
*1563 ANTENNA__1046__RESET_B
*1564 ANTENNA__1047__RESET_B
*1565 ANTENNA__1054__CLK
*1566 ANTENNA__1055__CLK
*1567 ANTENNA__1056__CLK
*1568 ANTENNA__1057__CLK
*1569 ANTENNA__1058__CLK
*1570 ANTENNA__1059__CLK
*1571 ANTENNA__1059__RESET_B
*1572 ANTENNA__1060__CLK
*1573 ANTENNA__1061__CLK
*1574 ANTENNA__1062__CLK
*1575 ANTENNA__1062__RESET_B
*1576 ANTENNA__1063__CLK
*1577 ANTENNA__1063__RESET_B
*1578 ANTENNA__1064__CLK
*1579 ANTENNA__1065__CLK
*1580 ANTENNA__1066__CLK
*1581 ANTENNA__1067__CLK
*1582 ANTENNA__1068__CLK
*1583 ANTENNA__1070__RESET_B
*1584 ANTENNA__1071__RESET_B
*1585 ANTENNA__1072__CLK
*1586 ANTENNA__1073__CLK