*SPEF "ieee 1481-1999"
*DESIGN "signal_generator"
*DATE "11:11:11 Fri 11 11, 1111"
*VENDOR "OpenRCX"
*PROGRAM "Parallel Extraction"
*VERSION "1.0"
*DESIGN_FLOW "NAME_SCOPE LOCAL" "PIN_CAP NONE"
*DIVIDER /
*DELIMITER :
*BUS_DELIMITER []
*T_UNIT 1 NS
*C_UNIT 1 PF
*R_UNIT 1 OHM
*L_UNIT 1 HENRY

*NAME_MAP
*1 io_analog[0]
*2 io_analog[10]
*3 io_analog[1]
*4 io_analog[2]
*5 io_analog[3]
*6 io_analog[4]
*7 io_analog[5]
*8 io_analog[6]
*9 io_analog[7]
*10 io_analog[8]
*11 io_analog[9]
*12 io_in[0]
*13 io_in[10]
*14 io_in[11]
*15 io_in[12]
*16 io_in[13]
*17 io_in[14]
*18 io_in[15]
*19 io_in[16]
*20 io_in[17]
*21 io_in[18]
*22 io_in[19]
*23 io_in[1]
*24 io_in[20]
*25 io_in[21]
*26 io_in[22]
*27 io_in[23]
*28 io_in[24]
*29 io_in[25]
*30 io_in[26]
*31 io_in[2]
*32 io_in[3]
*33 io_in[4]
*34 io_in[5]
*35 io_in[6]
*36 io_in[7]
*37 io_in[8]
*38 io_in[9]
*39 net190
*40 net200
*41 net201
*42 net202
*43 net203
*44 net204
*45 net205
*46 net206
*47 net207
*48 net208
*49 net209
*50 net191
*51 net210
*52 net211
*53 net212
*54 net213
*55 net214
*56 net215
*57 net216
*58 net192
*59 net193
*60 net194
*61 net195
*62 net196
*63 net197
*64 net198
*65 net199
*66 net217
*67 io_out[10]
*68 io_out[11]
*69 io_out[12]
*70 io_out[13]
*71 io_out[14]
*72 io_out[15]
*73 io_out[16]
*74 io_out[17]
*75 net224
*76 net225
*77 net218
*78 net226
*79 net227
*80 net228
*81 net229
*82 net230
*83 net231
*84 net232
*85 net219
*86 net220
*87 net221
*88 net222
*89 net223
*90 io_out[7]
*91 io_out[8]
*92 io_out[9]
*95 wb_clk_i
*96 wb_rst_i
*97 wbs_ack_o
*98 wbs_adr_i[0]
*99 wbs_adr_i[10]
*100 wbs_adr_i[11]
*101 wbs_adr_i[12]
*102 wbs_adr_i[13]
*103 wbs_adr_i[14]
*104 wbs_adr_i[15]
*105 wbs_adr_i[16]
*106 wbs_adr_i[17]
*107 wbs_adr_i[18]
*108 wbs_adr_i[19]
*109 wbs_adr_i[1]
*110 wbs_adr_i[20]
*111 wbs_adr_i[21]
*112 wbs_adr_i[22]
*113 wbs_adr_i[23]
*114 wbs_adr_i[24]
*115 wbs_adr_i[25]
*116 wbs_adr_i[26]
*117 wbs_adr_i[27]
*118 wbs_adr_i[28]
*119 wbs_adr_i[29]
*120 wbs_adr_i[2]
*121 wbs_adr_i[30]
*122 wbs_adr_i[31]
*123 wbs_adr_i[3]
*124 wbs_adr_i[4]
*125 wbs_adr_i[5]
*126 wbs_adr_i[6]
*127 wbs_adr_i[7]
*128 wbs_adr_i[8]
*129 wbs_adr_i[9]
*130 wbs_cyc_i
*131 wbs_dat_i[0]
*132 wbs_dat_i[10]
*133 wbs_dat_i[11]
*134 wbs_dat_i[12]
*135 wbs_dat_i[13]
*136 wbs_dat_i[14]
*137 wbs_dat_i[15]
*138 wbs_dat_i[16]
*139 wbs_dat_i[17]
*140 wbs_dat_i[18]
*141 wbs_dat_i[19]
*142 wbs_dat_i[1]
*143 wbs_dat_i[20]
*144 wbs_dat_i[21]
*145 wbs_dat_i[22]
*146 wbs_dat_i[23]
*147 wbs_dat_i[24]
*148 wbs_dat_i[25]
*149 wbs_dat_i[26]
*150 wbs_dat_i[27]
*151 wbs_dat_i[28]
*152 wbs_dat_i[29]
*153 wbs_dat_i[2]
*154 wbs_dat_i[30]
*155 wbs_dat_i[31]
*156 wbs_dat_i[3]
*157 wbs_dat_i[4]
*158 wbs_dat_i[5]
*159 wbs_dat_i[6]
*160 wbs_dat_i[7]
*161 wbs_dat_i[8]
*162 wbs_dat_i[9]
*163 wbs_dat_o[0]
*164 net242
*165 net243
*166 net244
*167 net245
*168 net246
*169 net247
*170 net248
*171 net249
*172 net250
*173 net251
*174 net233
*175 net252
*176 net253
*177 net254
*178 net255
*179 net256
*180 net257
*181 net258
*182 net259
*183 net260
*184 net261
*185 net234
*186 net262
*187 net263
*188 net235
*189 net236
*190 net237
*191 net238
*192 net239
*193 net240
*194 net241
*195 wbs_sel_i[0]
*196 wbs_sel_i[1]
*197 wbs_sel_i[2]
*198 wbs_sel_i[3]
*199 wbs_stb_i
*200 wbs_we_i
*201 _0000_
*202 _0001_
*203 _0002_
*204 _0003_
*205 _0004_
*206 _0005_
*207 _0006_
*208 _0007_
*209 _0008_
*210 _0009_
*211 _0010_
*212 _0011_
*213 _0012_
*214 _0013_
*215 _0014_
*216 _0015_
*217 _0016_
*218 _0017_
*219 _0018_
*220 _0019_
*221 _0020_
*222 _0021_
*223 _0022_
*224 _0023_
*225 _0024_
*226 _0025_
*227 _0026_
*228 _0027_
*229 _0028_
*230 _0029_
*231 _0030_
*232 _0031_
*233 _0032_
*234 _0033_
*235 _0034_
*236 _0035_
*237 _0036_
*238 _0037_
*239 _0038_
*240 _0039_
*241 _0040_
*242 _0041_
*243 _0042_
*244 _0043_
*245 _0044_
*246 _0045_
*247 _0046_
*248 _0047_
*249 _0048_
*250 _0049_
*251 _0050_
*252 _0051_
*253 _0052_
*254 _0053_
*255 _0054_
*256 _0055_
*257 _0056_
*258 _0057_
*259 _0058_
*260 _0059_
*261 _0060_
*262 _0061_
*263 _0062_
*264 _0063_
*265 _0064_
*266 _0065_
*267 _0066_
*268 _0067_
*269 _0068_
*270 _0069_
*271 _0070_
*272 _0072_
*273 _0073_
*274 _0074_
*275 _0075_
*276 _0076_
*277 _0077_
*278 _0078_
*279 _0079_
*280 _0080_
*281 _0081_
*282 _0082_
*283 _0083_
*284 _0084_
*285 _0085_
*286 _0086_
*287 _0087_
*288 _0088_
*289 _0089_
*290 _0090_
*291 _0091_
*292 _0092_
*293 _0093_
*294 _0094_
*295 _0095_
*296 _0096_
*297 _0097_
*298 _0098_
*299 _0099_
*300 _0100_
*301 _0101_
*302 _0102_
*303 _0103_
*304 _0104_
*305 _0105_
*306 _0106_
*307 _0107_
*308 _0108_
*309 _0109_
*310 _0110_
*311 _0111_
*312 _0112_
*313 _0113_
*314 _0114_
*315 _0115_
*316 _0116_
*317 _0117_
*318 _0118_
*319 _0119_
*320 _0120_
*321 _0121_
*322 _0122_
*323 _0123_
*324 _0124_
*325 _0125_
*326 _0126_
*327 _0127_
*328 _0128_
*329 _0129_
*330 _0130_
*331 _0131_
*332 _0132_
*333 _0133_
*334 _0134_
*335 _0135_
*336 _0136_
*337 _0137_
*338 _0138_
*339 _0139_
*340 _0140_
*341 _0141_
*342 _0142_
*343 _0143_
*344 _0144_
*345 _0145_
*346 _0146_
*347 _0147_
*348 _0148_
*349 _0149_
*350 _0150_
*351 _0151_
*352 _0152_
*353 _0153_
*354 _0154_
*355 _0155_
*356 _0156_
*357 _0157_
*358 _0158_
*359 _0159_
*360 _0160_
*361 _0161_
*362 _0162_
*363 _0163_
*364 _0164_
*365 _0165_
*366 _0166_
*367 _0167_
*368 _0168_
*369 _0169_
*370 _0170_
*371 _0171_
*372 _0172_
*373 _0173_
*374 _0174_
*375 _0175_
*376 _0176_
*377 _0177_
*378 _0178_
*379 _0179_
*380 _0180_
*381 _0181_
*382 _0182_
*383 _0183_
*384 _0184_
*385 _0185_
*386 _0186_
*387 _0187_
*388 _0188_
*389 _0189_
*390 _0190_
*391 _0191_
*392 _0192_
*393 _0193_
*394 _0194_
*395 _0195_
*396 _0196_
*397 _0197_
*398 _0198_
*399 _0199_
*400 _0200_
*401 _0201_
*402 _0202_
*403 _0203_
*404 _0204_
*405 _0205_
*406 _0206_
*407 _0207_
*408 _0208_
*409 _0209_
*410 _0210_
*411 _0211_
*412 _0212_
*413 _0213_
*414 _0214_
*415 _0215_
*416 _0216_
*417 _0217_
*418 _0218_
*419 _0219_
*420 _0220_
*421 _0221_
*422 _0222_
*423 _0223_
*424 _0224_
*425 _0225_
*426 _0226_
*427 _0227_
*428 _0228_
*429 _0229_
*430 _0230_
*431 _0231_
*432 _0232_
*433 _0233_
*434 _0234_
*435 _0235_
*436 _0236_
*437 _0237_
*438 _0238_
*439 _0239_
*440 _0240_
*441 _0241_
*442 _0242_
*443 _0243_
*444 _0244_
*445 _0245_
*446 _0246_
*447 _0247_
*448 _0248_
*449 _0249_
*450 _0250_
*451 _0251_
*452 _0252_
*453 _0253_
*454 _0254_
*455 _0255_
*456 _0256_
*457 _0257_
*458 _0258_
*459 _0259_
*460 _0260_
*461 _0261_
*462 _0262_
*463 _0263_
*464 _0264_
*465 _0265_
*466 _0266_
*467 _0267_
*468 _0268_
*469 _0269_
*470 _0270_
*471 _0271_
*472 _0272_
*473 _0273_
*474 _0274_
*475 _0275_
*476 _0276_
*477 _0277_
*478 _0278_
*479 _0279_
*480 _0280_
*481 _0281_
*482 _0282_
*483 _0283_
*484 _0284_
*485 _0285_
*486 _0286_
*487 _0287_
*488 _0288_
*489 _0289_
*490 _0290_
*491 _0291_
*492 _0292_
*493 _0293_
*494 _0294_
*495 _0295_
*496 _0296_
*497 _0297_
*498 _0298_
*499 _0299_
*500 _0300_
*501 _0301_
*502 _0302_
*503 _0303_
*504 _0304_
*505 _0305_
*506 _0306_
*507 _0307_
*508 _0308_
*509 _0309_
*510 _0310_
*511 _0311_
*512 _0312_
*513 _0313_
*514 _0314_
*515 _0315_
*516 _0316_
*517 _0317_
*518 _0318_
*519 _0319_
*520 _0320_
*521 _0321_
*522 _0322_
*523 _0323_
*524 _0324_
*525 _0325_
*526 _0326_
*527 _0327_
*528 _0328_
*529 _0329_
*530 _0330_
*531 _0331_
*532 _0332_
*533 _0333_
*534 _0334_
*535 _0335_
*536 _0336_
*537 _0337_
*538 _0338_
*539 _0339_
*540 _0340_
*541 _0341_
*542 _0342_
*543 _0343_
*544 _0344_
*545 _0345_
*546 _0346_
*547 _0347_
*548 _0348_
*549 _0349_
*550 _0350_
*551 _0351_
*552 _0352_
*553 _0353_
*554 _0354_
*555 _0355_
*556 _0356_
*557 _0357_
*558 _0358_
*559 _0359_
*560 _0360_
*561 _0361_
*562 _0362_
*563 _0363_
*564 _0364_
*565 _0365_
*566 _0366_
*567 _0367_
*568 _0368_
*569 _0369_
*570 _0370_
*571 _0371_
*572 _0372_
*573 _0373_
*574 _0374_
*575 _0375_
*576 _0376_
*577 _0377_
*578 _0378_
*579 _0379_
*580 _0380_
*581 _0381_
*582 _0382_
*583 _0383_
*584 _0384_
*585 _0385_
*586 _0386_
*587 _0387_
*588 _0388_
*589 _0389_
*590 _0390_
*591 _0391_
*592 _0392_
*593 _0393_
*594 _0394_
*595 _0395_
*596 _0396_
*597 _0397_
*598 _0398_
*599 _0399_
*600 _0400_
*601 _0401_
*602 _0402_
*603 _0403_
*604 _0404_
*605 _0405_
*606 _0406_
*607 _0407_
*608 _0408_
*609 _0409_
*610 _0410_
*611 _0411_
*612 _0412_
*613 _0413_
*614 _0414_
*615 _0415_
*616 _0416_
*617 _0417_
*618 _0418_
*619 _0419_
*620 _0420_
*621 _0421_
*622 _0422_
*623 _0423_
*624 _0424_
*625 _0425_
*626 _0426_
*627 _0427_
*628 _0428_
*629 _0429_
*630 _0430_
*631 _0431_
*632 _0432_
*633 _0433_
*634 _0434_
*635 _0435_
*636 _0436_
*637 _0437_
*638 _0438_
*639 _0439_
*640 _0440_
*641 _0441_
*642 _0442_
*643 _0443_
*644 _0444_
*645 _0445_
*646 _0446_
*647 _0447_
*648 _0448_
*649 _0449_
*650 _0450_
*651 _0451_
*652 _0452_
*653 _0453_
*654 _0454_
*655 _0455_
*656 _0456_
*657 _0457_
*658 _0458_
*659 _0459_
*660 _0460_
*661 _0461_
*662 _0462_
*663 _0463_
*664 _0464_
*665 _0465_
*666 _0466_
*667 _0467_
*668 _0468_
*669 _0469_
*670 _0470_
*671 _0471_
*672 _0472_
*673 _0473_
*674 _0474_
*675 _0475_
*676 _0476_
*677 _0477_
*678 _0478_
*679 _0479_
*680 _0480_
*681 _0481_
*682 _0482_
*683 adc_bridge1\.adc_cfg1\[0\]
*684 adc_bridge1\.adc_cfg1\[10\]
*685 adc_bridge1\.adc_cfg1\[11\]
*686 adc_bridge1\.adc_cfg1\[12\]
*687 adc_bridge1\.adc_cfg1\[13\]
*688 adc_bridge1\.adc_cfg1\[14\]
*689 adc_bridge1\.adc_cfg1\[15\]
*690 adc_bridge1\.adc_cfg1\[1\]
*691 adc_bridge1\.adc_cfg1\[2\]
*692 adc_bridge1\.adc_cfg1\[3\]
*693 adc_bridge1\.adc_cfg1\[4\]
*694 adc_bridge1\.adc_cfg1\[5\]
*695 adc_bridge1\.adc_cfg1\[6\]
*696 adc_bridge1\.adc_cfg1\[7\]
*697 adc_bridge1\.adc_cfg1\[8\]
*698 adc_bridge1\.adc_cfg1\[9\]
*699 adc_bridge1\.adc_cfg2\[0\]
*700 adc_bridge1\.adc_cfg2\[10\]
*701 adc_bridge1\.adc_cfg2\[11\]
*702 adc_bridge1\.adc_cfg2\[12\]
*703 adc_bridge1\.adc_cfg2\[13\]
*704 adc_bridge1\.adc_cfg2\[14\]
*705 adc_bridge1\.adc_cfg2\[15\]
*706 adc_bridge1\.adc_cfg2\[1\]
*707 adc_bridge1\.adc_cfg2\[2\]
*708 adc_bridge1\.adc_cfg2\[3\]
*709 adc_bridge1\.adc_cfg2\[4\]
*710 adc_bridge1\.adc_cfg2\[5\]
*711 adc_bridge1\.adc_cfg2\[6\]
*712 adc_bridge1\.adc_cfg2\[7\]
*713 adc_bridge1\.adc_cfg2\[8\]
*714 adc_bridge1\.adc_cfg2\[9\]
*715 adc_bridge1\.adc_cfg_load_r\[0\]
*716 adc_bridge1\.adc_cfg_load_r\[10\]
*717 adc_bridge1\.adc_cfg_load_r\[11\]
*718 adc_bridge1\.adc_cfg_load_r\[12\]
*719 adc_bridge1\.adc_cfg_load_r\[13\]
*720 adc_bridge1\.adc_cfg_load_r\[14\]
*721 adc_bridge1\.adc_cfg_load_r\[15\]
*722 adc_bridge1\.adc_cfg_load_r\[16\]
*723 adc_bridge1\.adc_cfg_load_r\[17\]
*724 adc_bridge1\.adc_cfg_load_r\[18\]
*725 adc_bridge1\.adc_cfg_load_r\[19\]
*726 adc_bridge1\.adc_cfg_load_r\[1\]
*727 adc_bridge1\.adc_cfg_load_r\[20\]
*728 adc_bridge1\.adc_cfg_load_r\[21\]
*729 adc_bridge1\.adc_cfg_load_r\[22\]
*730 adc_bridge1\.adc_cfg_load_r\[23\]
*731 adc_bridge1\.adc_cfg_load_r\[24\]
*732 adc_bridge1\.adc_cfg_load_r\[25\]
*733 adc_bridge1\.adc_cfg_load_r\[26\]
*734 adc_bridge1\.adc_cfg_load_r\[27\]
*735 adc_bridge1\.adc_cfg_load_r\[28\]
*736 adc_bridge1\.adc_cfg_load_r\[29\]
*737 adc_bridge1\.adc_cfg_load_r\[2\]
*738 adc_bridge1\.adc_cfg_load_r\[30\]
*739 adc_bridge1\.adc_cfg_load_r\[31\]
*740 adc_bridge1\.adc_cfg_load_r\[32\]
*741 adc_bridge1\.adc_cfg_load_r\[3\]
*742 adc_bridge1\.adc_cfg_load_r\[4\]
*743 adc_bridge1\.adc_cfg_load_r\[5\]
*744 adc_bridge1\.adc_cfg_load_r\[6\]
*745 adc_bridge1\.adc_cfg_load_r\[7\]
*746 adc_bridge1\.adc_cfg_load_r\[8\]
*747 adc_bridge1\.adc_cfg_load_r\[9\]
*748 adc_bridge1\.adc_cfg_written_r
*749 adc_bridge1\.adc_conv_finished
*750 adc_bridge1\.adc_conv_finished_osr
*751 adc_bridge1\.adc_res\[0\]
*752 adc_bridge1\.adc_res\[10\]
*753 adc_bridge1\.adc_res\[11\]
*754 adc_bridge1\.adc_res\[12\]
*755 adc_bridge1\.adc_res\[13\]
*756 adc_bridge1\.adc_res\[14\]
*757 adc_bridge1\.adc_res\[15\]
*758 adc_bridge1\.adc_res\[1\]
*759 adc_bridge1\.adc_res\[2\]
*760 adc_bridge1\.adc_res\[3\]
*761 adc_bridge1\.adc_res\[4\]
*762 adc_bridge1\.adc_res\[5\]
*763 adc_bridge1\.adc_res\[6\]
*764 adc_bridge1\.adc_res\[7\]
*765 adc_bridge1\.adc_res\[8\]
*766 adc_bridge1\.adc_res\[9\]
*767 adc_bridge1\.adc_res_r\[0\]
*768 adc_bridge1\.adc_res_r\[10\]
*769 adc_bridge1\.adc_res_r\[11\]
*770 adc_bridge1\.adc_res_r\[12\]
*771 adc_bridge1\.adc_res_r\[13\]
*772 adc_bridge1\.adc_res_r\[14\]
*773 adc_bridge1\.adc_res_r\[15\]
*774 adc_bridge1\.adc_res_r\[16\]
*775 adc_bridge1\.adc_res_r\[17\]
*776 adc_bridge1\.adc_res_r\[18\]
*777 adc_bridge1\.adc_res_r\[19\]
*778 adc_bridge1\.adc_res_r\[1\]
*779 adc_bridge1\.adc_res_r\[2\]
*780 adc_bridge1\.adc_res_r\[3\]
*781 adc_bridge1\.adc_res_r\[4\]
*782 adc_bridge1\.adc_res_r\[5\]
*783 adc_bridge1\.adc_res_r\[6\]
*784 adc_bridge1\.adc_res_r\[7\]
*785 adc_bridge1\.adc_res_r\[8\]
*786 adc_bridge1\.adc_res_r\[9\]
*787 adc_bridge1\.clk
*788 adc_bridge1\.conv_finish
*789 adc_bridge1\.conv_finish_sel
*790 adc_bridge2\.adc_conv_finished
*791 adc_bridge2\.adc_conv_finished_osr
*792 adc_bridge2\.adc_res\[0\]
*793 adc_bridge2\.adc_res\[10\]
*794 adc_bridge2\.adc_res\[11\]
*795 adc_bridge2\.adc_res\[12\]
*796 adc_bridge2\.adc_res\[13\]
*797 adc_bridge2\.adc_res\[14\]
*798 adc_bridge2\.adc_res\[15\]
*799 adc_bridge2\.adc_res\[1\]
*800 adc_bridge2\.adc_res\[2\]
*801 adc_bridge2\.adc_res\[3\]
*802 adc_bridge2\.adc_res\[4\]
*803 adc_bridge2\.adc_res\[5\]
*804 adc_bridge2\.adc_res\[6\]
*805 adc_bridge2\.adc_res\[7\]
*806 adc_bridge2\.adc_res\[8\]
*807 adc_bridge2\.adc_res\[9\]
*808 adc_bridge2\.adc_res_r\[0\]
*809 adc_bridge2\.adc_res_r\[10\]
*810 adc_bridge2\.adc_res_r\[11\]
*811 adc_bridge2\.adc_res_r\[12\]
*812 adc_bridge2\.adc_res_r\[13\]
*813 adc_bridge2\.adc_res_r\[14\]
*814 adc_bridge2\.adc_res_r\[15\]
*815 adc_bridge2\.adc_res_r\[16\]
*816 adc_bridge2\.adc_res_r\[17\]
*817 adc_bridge2\.adc_res_r\[1\]
*818 adc_bridge2\.adc_res_r\[2\]
*819 adc_bridge2\.adc_res_r\[3\]
*820 adc_bridge2\.adc_res_r\[4\]
*821 adc_bridge2\.adc_res_r\[5\]
*822 adc_bridge2\.adc_res_r\[6\]
*823 adc_bridge2\.adc_res_r\[7\]
*824 adc_bridge2\.adc_res_r\[8\]
*825 adc_bridge2\.adc_res_r\[9\]
*826 adc_bridge2\.conv_finish
*827 analog_signal_gen0\.contador\[0\]
*828 analog_signal_gen0\.contador\[10\]
*829 analog_signal_gen0\.contador\[11\]
*830 analog_signal_gen0\.contador\[12\]
*831 analog_signal_gen0\.contador\[13\]
*832 analog_signal_gen0\.contador\[14\]
*833 analog_signal_gen0\.contador\[15\]
*834 analog_signal_gen0\.contador\[16\]
*835 analog_signal_gen0\.contador\[17\]
*836 analog_signal_gen0\.contador\[18\]
*837 analog_signal_gen0\.contador\[19\]
*838 analog_signal_gen0\.contador\[1\]
*839 analog_signal_gen0\.contador\[20\]
*840 analog_signal_gen0\.contador\[21\]
*841 analog_signal_gen0\.contador\[22\]
*842 analog_signal_gen0\.contador\[23\]
*843 analog_signal_gen0\.contador\[24\]
*844 analog_signal_gen0\.contador\[25\]
*845 analog_signal_gen0\.contador\[26\]
*846 analog_signal_gen0\.contador\[27\]
*847 analog_signal_gen0\.contador\[28\]
*848 analog_signal_gen0\.contador\[29\]
*849 analog_signal_gen0\.contador\[2\]
*850 analog_signal_gen0\.contador\[30\]
*851 analog_signal_gen0\.contador\[31\]
*852 analog_signal_gen0\.contador\[3\]
*853 analog_signal_gen0\.contador\[4\]
*854 analog_signal_gen0\.contador\[5\]
*855 analog_signal_gen0\.contador\[6\]
*856 analog_signal_gen0\.contador\[7\]
*857 analog_signal_gen0\.contador\[8\]
*858 analog_signal_gen0\.contador\[9\]
*859 analog_signal_gen0\.o_adc_start_conversion
*860 ciclos\[0\]
*861 ciclos\[1\]
*862 ciclos\[2\]
*863 ciclos\[3\]
*864 contador_waves\[0\]
*865 contador_waves\[10\]
*866 contador_waves\[11\]
*867 contador_waves\[12\]
*868 contador_waves\[13\]
*869 contador_waves\[1\]
*870 contador_waves\[2\]
*871 contador_waves\[3\]
*872 contador_waves\[4\]
*873 contador_waves\[5\]
*874 contador_waves\[6\]
*875 contador_waves\[7\]
*876 contador_waves\[8\]
*877 contador_waves\[9\]
*878 estado\[0\]
*879 estado\[1\]
*880 f_sel_bit_counter\[0\]
*881 f_sel_bit_counter\[1\]
*882 f_sel_bit_counter\[2\]
*883 f_sel_sr\[0\]
*884 f_sel_sr\[1\]
*885 f_sel_sr\[2\]
*886 f_sel_sr\[3\]
*887 f_selected\[0\]
*888 f_selected\[1\]
*889 f_selected\[2\]
*890 f_selected\[3\]
*891 i_adc_data_n_ch1_buff
*892 i_adc_data_n_ch2_buff
*893 i_adc_data_p_ch1_buff
*894 i_adc_data_p_ch2_buff
*895 i_clk_wb
*896 i_enable_wb
*897 i_f_select\[0\]
*898 i_f_select\[1\]
*899 i_f_select\[2\]
*900 i_f_select\[3\]
*901 i_f_select_wb\[0\]
*902 i_f_select_wb\[1\]
*903 i_f_select_wb\[2\]
*904 i_f_select_wb\[3\]
*905 i_test_reg
*906 net1
*907 net10
*908 net100
*909 net101
*910 net102
*911 net103
*912 net104
*913 net105
*914 net106
*915 net107
*916 net108
*917 net109
*918 net11
*919 net110
*920 net111
*921 net112
*922 net113
*923 net114
*924 net115
*925 net116
*926 net117
*927 net118
*928 net119
*929 net12
*930 net120
*931 net121
*932 net122
*933 net123
*934 net124
*935 net125
*936 net126
*937 net127
*938 net128
*939 net129
*940 net13
*941 net130
*942 net131
*943 net132
*944 net133
*945 net134
*946 net135
*947 net136
*948 net137
*949 net138
*950 net139
*951 net14
*952 net140
*953 net141
*954 net142
*955 net143
*956 net144
*957 net145
*958 net146
*959 net147
*960 net148
*961 net149
*962 net15
*963 net150
*964 net151
*965 net152
*966 net153
*967 net154
*968 net155
*969 net156
*970 net157
*971 net158
*972 net159
*973 net16
*974 net160
*975 net161
*976 net162
*977 net163
*978 net164
*979 net165
*980 net166
*981 net167
*982 net168
*983 net169
*984 net17
*985 net170
*986 net171
*987 net172
*988 net173
*989 net174
*990 net175
*991 net176
*992 net177
*993 net178
*994 net179
*995 net18
*996 net180
*997 net181
*998 net182
*999 net183
*1000 net184
*1001 net185
*1002 net186
*1003 net187
*1004 net188
*1005 net189
*1006 net19
*1007 net2
*1008 net20
*1009 net21
*1010 net22
*1011 net23
*1012 net24
*1013 net25
*1014 net26
*1015 net264
*1016 net265
*1017 net266
*1018 net267
*1019 net268
*1020 net27
*1021 net28
*1022 net29
*1023 net3
*1024 net30
*1025 net31
*1026 net32
*1027 net33
*1028 net34
*1029 net35
*1030 net36
*1031 net37
*1032 net38
*1033 net39
*1034 net4
*1035 net40
*1036 net41
*1037 net42
*1038 net43
*1039 net44
*1040 net45
*1041 net46
*1042 net47
*1043 net48
*1044 net49
*1045 net5
*1046 net50
*1047 net51
*1048 net52
*1049 net53
*1050 net54
*1051 net55
*1052 net56
*1053 net57
*1054 net58
*1055 net59
*1056 net6
*1057 net60
*1058 net61
*1059 net62
*1060 net63
*1061 net64
*1062 net65
*1063 net66
*1064 net67
*1065 net68
*1066 net69
*1067 net7
*1068 net70
*1069 net71
*1070 net72
*1071 net73
*1072 net74
*1073 net75
*1074 net76
*1075 net77
*1076 net78
*1077 net79
*1078 net8
*1079 net80
*1080 net81
*1081 net82
*1082 net83
*1083 net84
*1084 net85
*1085 net86
*1086 net87
*1087 net88
*1088 net89
*1089 net9
*1090 net90
*1091 net91
*1092 net92
*1093 net93
*1094 net94
*1095 net95
*1096 net96
*1097 net97
*1098 net98
*1099 net99
*1100 o_phi_l1
*1101 o_phi_l2
*1102 o_phi_p
*1103 o_phi_r
*1104 o_test\[0\]
*1105 o_test\[1\]
*1106 o_test\[2\]
*1107 ANTENNA_1
*1108 ANTENNA_10
*1109 ANTENNA_11
*1110 ANTENNA_12
*1111 ANTENNA_13
*1112 ANTENNA_14
*1113 ANTENNA_15
*1114 ANTENNA_16
*1115 ANTENNA_17
*1116 ANTENNA_18
*1117 ANTENNA_19
*1118 ANTENNA_2
*1119 ANTENNA_3
*1120 ANTENNA_4
*1121 ANTENNA_5
*1122 ANTENNA_6
*1123 ANTENNA_7
*1124 ANTENNA_8
*1125 ANTENNA_9
*1126 ANTENNA__0488__A
*1127 ANTENNA__0491__A
*1128 ANTENNA__0492__A
*1129 ANTENNA__0493__A
*1130 ANTENNA__0497__A
*1131 ANTENNA__0501__A
*1132 ANTENNA__0501__B
*1133 ANTENNA__0503__A
*1134 ANTENNA__0505__A
*1135 ANTENNA__0505__B
*1136 ANTENNA__0506__A
*1137 ANTENNA__0507__A
*1138 ANTENNA__0508__A_N
*1139 ANTENNA__0509__S
*1140 ANTENNA__0510__S
*1141 ANTENNA__0511__S
*1142 ANTENNA__0512__S
*1143 ANTENNA__0513__S
*1144 ANTENNA__0514__S
*1145 ANTENNA__0515__S
*1146 ANTENNA__0516__S
*1147 ANTENNA__0517__S
*1148 ANTENNA__0518__S
*1149 ANTENNA__0519__S
*1150 ANTENNA__0520__S
*1151 ANTENNA__0521__S
*1152 ANTENNA__0522__S
*1153 ANTENNA__0523__S
*1154 ANTENNA__0524__A0
*1155 ANTENNA__0524__S
*1156 ANTENNA__0525__A0
*1157 ANTENNA__0525__A1
*1158 ANTENNA__0525__S
*1159 ANTENNA__0526__A
*1160 ANTENNA__0527__A_N
*1161 ANTENNA__0537__S
*1162 ANTENNA__0538__S
*1163 ANTENNA__0539__S
*1164 ANTENNA__0540__S
*1165 ANTENNA__0541__S
*1166 ANTENNA__0542__S
*1167 ANTENNA__0543__A0
*1168 ANTENNA__0544__A_N
*1169 ANTENNA__0545__S
*1170 ANTENNA__0546__A0
*1171 ANTENNA__0546__A1
*1172 ANTENNA__0546__S
*1173 ANTENNA__0547__B
*1174 ANTENNA__0555__A
*1175 ANTENNA__0560__A
*1176 ANTENNA__0560__B
*1177 ANTENNA__0560__C
*1178 ANTENNA__0562__A
*1179 ANTENNA__0563__A
*1180 ANTENNA__0564__B
*1181 ANTENNA__0565__B
*1182 ANTENNA__0565__C
*1183 ANTENNA__0567__A
*1184 ANTENNA__0567__B
*1185 ANTENNA__0568__A1
*1186 ANTENNA__0569__B1_N
*1187 ANTENNA__0570__A1
*1188 ANTENNA__0570__B1
*1189 ANTENNA__0571__A1
*1190 ANTENNA__0571__B2
*1191 ANTENNA__0572__A1
*1192 ANTENNA__0572__A2
*1193 ANTENNA__0573__A1
*1194 ANTENNA__0575__A
*1195 ANTENNA__0575__B
*1196 ANTENNA__0575__C
*1197 ANTENNA__0575__D
*1198 ANTENNA__0576__B1
*1199 ANTENNA__0578__A
*1200 ANTENNA__0578__B
*1201 ANTENNA__0579__A
*1202 ANTENNA__0580__A_N
*1203 ANTENNA__0581__A_N
*1204 ANTENNA__0582__A_N
*1205 ANTENNA__0583__B
*1206 ANTENNA__0583__C
*1207 ANTENNA__0583__D
*1208 ANTENNA__0585__A1
*1209 ANTENNA__0585__S
*1210 ANTENNA__0586__A1
*1211 ANTENNA__0586__S
*1212 ANTENNA__0587__A1
*1213 ANTENNA__0587__S
*1214 ANTENNA__0589__A0
*1215 ANTENNA__0589__A1
*1216 ANTENNA__0591__A0
*1217 ANTENNA__0591__A1
*1218 ANTENNA__0593__A0
*1219 ANTENNA__0593__A1
*1220 ANTENNA__0594__A0
*1221 ANTENNA__0594__A1
*1222 ANTENNA__0595__A0
*1223 ANTENNA__0595__A1
*1224 ANTENNA__0596__A0
*1225 ANTENNA__0596__A1
*1226 ANTENNA__0600__A0
*1227 ANTENNA__0600__A1
*1228 ANTENNA__0600__S
*1229 ANTENNA__0601__A1
*1230 ANTENNA__0601__B1
*1231 ANTENNA__0602__A1
*1232 ANTENNA__0602__B1
*1233 ANTENNA__0603__B
*1234 ANTENNA__0646__B1
*1235 ANTENNA__0647__A1
*1236 ANTENNA__0647__B1
*1237 ANTENNA__0648__A
*1238 ANTENNA__0650__A
*1239 ANTENNA__0650__B
*1240 ANTENNA__0651__A
*1241 ANTENNA__0651__B
*1242 ANTENNA__0652__A
*1243 ANTENNA__0652__B
*1244 ANTENNA__0653__A1
*1245 ANTENNA__0656__A1
*1246 ANTENNA__0656__B2
*1247 ANTENNA__0657__A
*1248 ANTENNA__0659__A
*1249 ANTENNA__0659__B
*1250 ANTENNA__0660__A
*1251 ANTENNA__0660__B
*1252 ANTENNA__0662__A1
*1253 ANTENNA__0662__B1_N
*1254 ANTENNA__0664__A1
*1255 ANTENNA__0664__B1_N
*1256 ANTENNA__0666__A
*1257 ANTENNA__0676__A1
*1258 ANTENNA__0676__A2
*1259 ANTENNA__0678__A
*1260 ANTENNA__0678__B
*1261 ANTENNA__0681__A_N
*1262 ANTENNA__0681__B
*1263 ANTENNA__0683__C_N
*1264 ANTENNA__0684__A_N
*1265 ANTENNA__0684__B
*1266 ANTENNA__0686__A
*1267 ANTENNA__0686__B
*1268 ANTENNA__0688__C
*1269 ANTENNA__0689__B
*1270 ANTENNA__0693__A
*1271 ANTENNA__0697__A1
*1272 ANTENNA__0726__B1
*1273 ANTENNA__0736__C1
*1274 ANTENNA__0740__A1
*1275 ANTENNA__0741__A
*1276 ANTENNA__0741__B
*1277 ANTENNA__0742__A1
*1278 ANTENNA__0764__B1
*1279 ANTENNA__0765__B1
*1280 ANTENNA__0771__A1
*1281 ANTENNA__0771__S
*1282 ANTENNA__0772__A0
*1283 ANTENNA__0772__S
*1284 ANTENNA__0773__A
*1285 ANTENNA__0774__A1
*1286 ANTENNA__0774__S
*1287 ANTENNA__0775__A0
*1288 ANTENNA__0775__S
*1289 ANTENNA__0776__A
*1290 ANTENNA__0777__A1
*1291 ANTENNA__0777__S
*1292 ANTENNA__0778__A0
*1293 ANTENNA__0778__S
*1294 ANTENNA__0779__A
*1295 ANTENNA__0780__A1
*1296 ANTENNA__0780__S
*1297 ANTENNA__0781__A0
*1298 ANTENNA__0781__S
*1299 ANTENNA__0782__A
*1300 ANTENNA__0783__A
*1301 ANTENNA__0783__B
*1302 ANTENNA__0850__A
*1303 ANTENNA__0850__B
*1304 ANTENNA__0859__A
*1305 ANTENNA__0859__B
*1306 ANTENNA__0868__A
*1307 ANTENNA__0868__B
*1308 ANTENNA__0873__B1
*1309 ANTENNA__0873__C1
*1310 ANTENNA__0875__S
*1311 ANTENNA__0876__A
*1312 ANTENNA__0877__S
*1313 ANTENNA__0878__A
*1314 ANTENNA__0879__S
*1315 ANTENNA__0880__A
*1316 ANTENNA__0881__S
*1317 ANTENNA__0882__A
*1318 ANTENNA__0883__B1
*1319 ANTENNA__0884__A
*1320 ANTENNA__0885__A
*1321 ANTENNA__0887__A
*1322 ANTENNA__0888__A1
*1323 ANTENNA__0902__A
*1324 ANTENNA__0903__A
*1325 ANTENNA__0905__A0
*1326 ANTENNA__0905__S
*1327 ANTENNA__0906__A0
*1328 ANTENNA__0906__S
*1329 ANTENNA__0907__A0
*1330 ANTENNA__0907__S
*1331 ANTENNA__0908__A0
*1332 ANTENNA__0908__S
*1333 ANTENNA__0909__A0
*1334 ANTENNA__0909__S
*1335 ANTENNA__0910__A0
*1336 ANTENNA__0910__S
*1337 ANTENNA__0911__A0
*1338 ANTENNA__0911__S
*1339 ANTENNA__0912__A0
*1340 ANTENNA__0912__S
*1341 ANTENNA__0913__A0
*1342 ANTENNA__0913__S
*1343 ANTENNA__0914__A0
*1344 ANTENNA__0915__A0
*1345 ANTENNA__0916__A0
*1346 ANTENNA__0917__A0
*1347 ANTENNA__0918__A0
*1348 ANTENNA__0919__A0
*1349 ANTENNA__0920__A0
*1350 ANTENNA__0921__A0
*1351 ANTENNA__0922__A0
*1352 ANTENNA__0923__A0
*1353 ANTENNA__0924__A0
*1354 ANTENNA__0924__S
*1355 ANTENNA__0925__A0
*1356 ANTENNA__0925__S
*1357 ANTENNA__0926__A0
*1358 ANTENNA__0926__S
*1359 ANTENNA__0927__A0
*1360 ANTENNA__0927__S
*1361 ANTENNA__0928__A0
*1362 ANTENNA__0928__S
*1363 ANTENNA__0929__A0
*1364 ANTENNA__0929__S
*1365 ANTENNA__0930__A0
*1366 ANTENNA__0931__A0
*1367 ANTENNA__0932__A0
*1368 ANTENNA__0933__A0
*1369 ANTENNA__0934__A0
*1370 ANTENNA__0935__A0
*1371 ANTENNA__0936__A0
*1372 ANTENNA__0937__A0
*1373 ANTENNA__0938__S
*1374 ANTENNA__0939__S
*1375 ANTENNA__0940__S
*1376 ANTENNA__0941__S
*1377 ANTENNA__0942__S
*1378 ANTENNA__0943__S
*1379 ANTENNA__0944__S
*1380 ANTENNA__0945__S
*1381 ANTENNA__0946__S
*1382 ANTENNA__0950__S
*1383 ANTENNA__0951__S
*1384 ANTENNA__0952__S
*1385 ANTENNA__0956__S
*1386 ANTENNA__0957__S
*1387 ANTENNA__0958__S
*1388 ANTENNA__0959__S
*1389 ANTENNA__0960__S
*1390 ANTENNA__0961__S
*1391 ANTENNA__0967__S
*1392 ANTENNA__0968__S
*1393 ANTENNA__0969__S
*1394 ANTENNA__0970__S
*1395 ANTENNA__0971__D
*1396 ANTENNA__0976__CLK
*1397 ANTENNA__0978__CLK
*1398 ANTENNA__0978__D
*1399 ANTENNA__0979__CLK
*1400 ANTENNA__0979__D
*1401 ANTENNA__0980__CLK
*1402 ANTENNA__0980__D
*1403 ANTENNA__0981__CLK
*1404 ANTENNA__0981__D
*1405 ANTENNA__0982__CLK
*1406 ANTENNA__0983__CLK
*1407 ANTENNA__0984__D
*1408 ANTENNA__0985__CLK
*1409 ANTENNA__0986__CLK
*1410 ANTENNA__0987__CLK
*1411 ANTENNA__0988__CLK
*1412 ANTENNA__0989__CLK
*1413 ANTENNA__0990__CLK
*1414 ANTENNA__0991__CLK
*1415 ANTENNA__0992__CLK
*1416 ANTENNA__0993__CLK
*1417 ANTENNA__0994__CLK
*1418 ANTENNA__0995__CLK
*1419 ANTENNA__0996__CLK
*1420 ANTENNA__0997__CLK
*1421 ANTENNA__0998__CLK
*1422 ANTENNA__1004__CLK
*1423 ANTENNA__1005__CLK
*1424 ANTENNA__1006__CLK
*1425 ANTENNA__1007__CLK
*1426 ANTENNA__1008__CLK
*1427 ANTENNA__1019__CLK
*1428 ANTENNA__1020__CLK
*1429 ANTENNA__1021__CLK
*1430 ANTENNA__1022__CLK
*1431 ANTENNA__1023__CLK
*1432 ANTENNA__1023__D
*1433 ANTENNA__1056__CLK
*1434 ANTENNA__1057__CLK
*1435 ANTENNA__1058__CLK
*1436 ANTENNA__1059__CLK
*1437 ANTENNA__1060__CLK
*1438 ANTENNA__1061__CLK
*1439 ANTENNA__1062__CLK
*1440 ANTENNA__1063__CLK
*1441 ANTENNA__1064__CLK
*1442 ANTENNA__1064__D
*1443 ANTENNA__1064__RESET_B
*1444 ANTENNA__1065__CLK
*1445 ANTENNA__1065__RESET_B
*1446 ANTENNA__1066__CLK
*1447 ANTENNA__1066__RESET_B
*1448 ANTENNA__1067__CLK
*1449 ANTENNA__1067__RESET_B
*1450 ANTENNA__1068__CLK
*1451 ANTENNA__1068__RESET_B
*1452 ANTENNA__1069__CLK
*1453 ANTENNA__1069__RESET_B
*1454 ANTENNA__1070__CLK
*1455 ANTENNA__1070__RESET_B
*1456 ANTENNA__1071__CLK
*1457 ANTENNA__1071__RESET_B
*1458 ANTENNA__1072__CLK
*1459 ANTENNA__1072__RESET_B
*1460 ANTENNA__1073__CLK
*1461 ANTENNA__1073__RESET_B
*1462 ANTENNA__1074__CLK
*1463 ANTENNA__1074__RESET_B
*1464 ANTENNA__1075__CLK
*1465 ANTENNA__1075__RESET_B
*1466 ANTENNA__1076__CLK
*1467 ANTENNA__1076__RESET_B
*1468 ANTENNA__1077__CLK
*1469 ANTENNA__1077__RESET_B
*1470 ANTENNA__1078__CLK
*1471 ANTENNA__1078__RESET_B
*1472 ANTENNA__1079__CLK
*1473 ANTENNA__1079__RESET_B
*1474 ANTENNA__1080__CLK
*1475 ANTENNA__1080__RESET_B
*1476 ANTENNA__1081__CLK
*1477 ANTENNA__1081__RESET_B
*1478 ANTENNA__1082__CLK
*1479 ANTENNA__1082__D
*1480 ANTENNA__1082__RESET_B
*1481 ANTENNA__1083__CLK
*1482 ANTENNA__1083__RESET_B
*1483 ANTENNA__1084__CLK
*1484 ANTENNA__1084__RESET_B
*1485 ANTENNA__1085__RESET_B
*1486 ANTENNA__1087__RESET_B
*1487 ANTENNA__1088__RESET_B
*1488 ANTENNA__1089__RESET_B
*1489 ANTENNA__1090__RESET_B
*1490 ANTENNA__1091__RESET_B
*1491 ANTENNA__1092__RESET_B
*1492 ANTENNA__1093__RESET_B
*1493 ANTENNA__1094__RESET_B
*1494 ANTENNA__1095__CLK
*1495 ANTENNA__1095__RESET_B
*1496 ANTENNA__1096__CLK
*1497 ANTENNA__1096__RESET_B
*1498 ANTENNA__1097__CLK
*1499 ANTENNA__1097__RESET_B
*1500 ANTENNA__1098__CLK
*1501 ANTENNA__1098__RESET_B
*1502 ANTENNA__1099__CLK
*1503 ANTENNA__1099__RESET_B
*1504 ANTENNA__1100__CLK
*1505 ANTENNA__1100__RESET_B
*1506 ANTENNA__1101__CLK
*1507 ANTENNA__1101__RESET_B
*1508 ANTENNA__1102__RESET_B
*1509 ANTENNA__1103__RESET_B
*1510 ANTENNA__1104__CLK
*1511 ANTENNA__1104__RESET_B
*1512 ANTENNA__1105__RESET_B
*1513 ANTENNA__1106__RESET_B
*1514 ANTENNA__1107__CLK
*1515 ANTENNA__1107__RESET_B
*1516 ANTENNA__1108__CLK
*1517 ANTENNA__1108__RESET_B
*1518 ANTENNA__1109__RESET_B
*1519 ANTENNA__1110__RESET_B
*1520 ANTENNA__1112__RESET_B
*1521 ANTENNA__1113__RESET_B
*1522 ANTENNA__1114__RESET_B
*1523 ANTENNA__1115__CLK
*1524 ANTENNA__1115__RESET_B
*1525 ANTENNA__1116__CLK
*1526 ANTENNA__1116__RESET_B
*1527 ANTENNA__1117__RESET_B
*1528 ANTENNA__1118__RESET_B
*1529 ANTENNA__1120__RESET_B
*1530 ANTENNA__1123__RESET_B
*1531 ANTENNA__1127__RESET_B
*1532 ANTENNA__1130__RESET_B
*1533 ANTENNA__1131__RESET_B
*1534 ANTENNA__1132__RESET_B
*1535 ANTENNA__1133__CLK
*1536 ANTENNA__1133__RESET_B
*1537 ANTENNA__1134__CLK
*1538 ANTENNA__1134__RESET_B
*1539 ANTENNA__1135__RESET_B
*1540 ANTENNA__1136__RESET_B
*1541 ANTENNA__1137__CLK
*1542 ANTENNA__1137__RESET_B
*1543 ANTENNA__1138__CLK
*1544 ANTENNA__1138__RESET_B
*1545 ANTENNA__1139__RESET_B
*1546 ANTENNA__1140__RESET_B
*1547 ANTENNA__1141__RESET_B
*1548 ANTENNA__1147__RESET_B
*1549 ANTENNA__1148__CLK
*1550 ANTENNA__1148__RESET_B
*1551 ANTENNA__1149__CLK
*1552 ANTENNA__1149__RESET_B
*1553 ANTENNA__1150__RESET_B
*1554 ANTENNA__1163__RESET_B
*1555 ANTENNA__1164__RESET_B
*1556 ANTENNA__1165__CLK
*1557 ANTENNA__1165__RESET_B
*1558 ANTENNA__1166__CLK
*1559 ANTENNA__1166__RESET_B
*1560 ANTENNA__1167__CLK
*1561 ANTENNA__1167__RESET_B
*1562 ANTENNA__1168__CLK
*1563 ANTENNA__1169__CLK
*1564 ANTENNA__1170__CLK
*1565 ANTENNA__1171__CLK
*1566 ANTENNA_adc1_clk_vcm
*1567 ANTENNA_adc1_config_1_in\[0\]
*1568 ANTENNA_adc1_config_1_in\[10\]