*SPEF "ieee 1481-1999"
*DESIGN "signal_generator"
*DATE "11:11:11 Fri 11 11, 1111"
*VENDOR "OpenRCX"
*PROGRAM "Parallel Extraction"
*VERSION "1.0"
*DESIGN_FLOW "NAME_SCOPE LOCAL" "PIN_CAP NONE"
*DIVIDER /
*DELIMITER :
*BUS_DELIMITER []
*T_UNIT 1 NS
*C_UNIT 1 PF
*R_UNIT 1 OHM
*L_UNIT 1 HENRY

*NAME_MAP
*1 io_in[0]
*2 io_in[10]
*3 io_in[11]
*4 io_in[12]
*5 io_in[13]
*6 io_in[14]
*7 io_in[15]
*8 io_in[16]
*9 io_in[17]
*10 io_in[18]
*11 io_in[19]
*12 io_in[1]
*13 io_in[20]
*14 io_in[21]
*15 io_in[22]
*16 io_in[23]
*17 io_in[24]
*18 io_in[25]
*19 io_in[26]
*20 io_in[2]
*21 io_in[3]
*22 io_in[4]
*23 io_in[5]
*24 io_in[6]
*25 io_in[7]
*26 io_in[8]
*27 io_in[9]
*28 net87
*29 net97
*30 net98
*31 net99
*32 net100
*33 net101
*34 net102
*35 net103
*36 net104
*37 net105
*38 net106
*39 net88
*40 net107
*41 net108
*42 net109
*43 net110
*44 net111
*45 net112
*46 net113
*47 net89
*48 net90
*49 net91
*50 net92
*51 net93
*52 net94
*53 net95
*54 net96
*55 net114
*56 io_out[10]
*57 io_out[11]
*58 io_out[12]
*59 io_out[13]
*60 net121
*61 net122
*62 net123
*63 net124
*64 net125
*65 net126
*66 net115
*67 net127
*68 net128
*69 net129
*70 net130
*71 net131
*72 net132
*73 net133
*74 net116
*75 net117
*76 net118
*77 net119
*78 net120
*79 io_out[7]
*80 io_out[8]
*81 io_out[9]
*84 wb_clk_i
*85 wb_rst_i
*86 wbs_ack_o
*87 wbs_adr_i[0]
*88 wbs_adr_i[10]
*89 wbs_adr_i[11]
*90 wbs_adr_i[12]
*91 wbs_adr_i[13]
*92 wbs_adr_i[14]
*93 wbs_adr_i[15]
*94 wbs_adr_i[16]
*95 wbs_adr_i[17]
*96 wbs_adr_i[18]
*97 wbs_adr_i[19]
*98 wbs_adr_i[1]
*99 wbs_adr_i[20]
*100 wbs_adr_i[21]
*101 wbs_adr_i[22]
*102 wbs_adr_i[23]
*103 wbs_adr_i[24]
*104 wbs_adr_i[25]
*105 wbs_adr_i[26]
*106 wbs_adr_i[27]
*107 wbs_adr_i[28]
*108 wbs_adr_i[29]
*109 wbs_adr_i[2]
*110 wbs_adr_i[30]
*111 wbs_adr_i[31]
*112 wbs_adr_i[3]
*113 wbs_adr_i[4]
*114 wbs_adr_i[5]
*115 wbs_adr_i[6]
*116 wbs_adr_i[7]
*117 wbs_adr_i[8]
*118 wbs_adr_i[9]
*119 wbs_cyc_i
*120 wbs_dat_i[0]
*121 wbs_dat_i[10]
*122 wbs_dat_i[11]
*123 wbs_dat_i[12]
*124 wbs_dat_i[13]
*125 wbs_dat_i[14]
*126 wbs_dat_i[15]
*127 wbs_dat_i[16]
*128 wbs_dat_i[17]
*129 wbs_dat_i[18]
*130 wbs_dat_i[19]
*131 wbs_dat_i[1]
*132 wbs_dat_i[20]
*133 wbs_dat_i[21]
*134 wbs_dat_i[22]
*135 wbs_dat_i[23]
*136 wbs_dat_i[24]
*137 wbs_dat_i[25]
*138 wbs_dat_i[26]
*139 wbs_dat_i[27]
*140 wbs_dat_i[28]
*141 wbs_dat_i[29]
*142 wbs_dat_i[2]
*143 wbs_dat_i[30]
*144 wbs_dat_i[31]
*145 wbs_dat_i[3]
*146 wbs_dat_i[4]
*147 wbs_dat_i[5]
*148 wbs_dat_i[6]
*149 wbs_dat_i[7]
*150 wbs_dat_i[8]
*151 wbs_dat_i[9]
*152 wbs_dat_o[0]
*153 net143
*154 net144
*155 net145
*156 net146
*157 net147
*158 net148
*159 net149
*160 net150
*161 net151
*162 net152
*163 net134
*164 net153
*165 net154
*166 net155
*167 net156
*168 net157
*169 net158
*170 net159
*171 net160
*172 net161
*173 net162
*174 net135
*175 net163
*176 net164
*177 net136
*178 net137
*179 net138
*180 net139
*181 net140
*182 net141
*183 net142
*184 wbs_sel_i[0]
*185 wbs_sel_i[1]
*186 wbs_sel_i[2]
*187 wbs_sel_i[3]
*188 wbs_stb_i
*189 wbs_we_i
*190 _000_
*191 _001_
*192 _002_
*193 _003_
*194 _004_
*195 _005_
*196 _006_
*197 _007_
*198 _008_
*199 _009_
*200 _010_
*201 _011_
*202 _012_
*203 _013_
*204 _014_
*205 _015_
*206 _016_
*207 _017_
*208 _018_
*209 _019_
*210 _020_
*211 _021_
*212 _022_
*213 _023_
*214 _024_
*215 _025_
*216 _026_
*217 _027_
*218 _028_
*219 _029_
*220 _030_
*221 _031_
*222 _032_
*223 _034_
*224 _035_
*225 _036_
*226 _037_
*227 _038_
*228 _039_
*229 _040_
*230 _041_
*231 _042_
*232 _043_
*233 _044_
*234 _045_
*235 _046_
*236 _047_
*237 _048_
*238 _049_
*239 _050_
*240 _051_
*241 _052_
*242 _053_
*243 _054_
*244 _055_
*245 _056_
*246 _057_
*247 _058_
*248 _059_
*249 _060_
*250 _061_
*251 _062_
*252 _063_
*253 _064_
*254 _065_
*255 _066_
*256 _067_
*257 _068_
*258 _069_
*259 _070_
*260 _071_
*261 _072_
*262 _073_
*263 _074_
*264 _075_
*265 _076_
*266 _077_
*267 _078_
*268 _079_
*269 _080_
*270 _081_
*271 _082_
*272 _083_
*273 _084_
*274 _085_
*275 _086_
*276 _087_
*277 _088_
*278 _089_
*279 _090_
*280 _091_
*281 _092_
*282 _093_
*283 _094_
*284 _095_
*285 _096_
*286 _097_
*287 _098_
*288 _099_
*289 _100_
*290 _101_
*291 _102_
*292 _103_
*293 _104_
*294 _105_
*295 _106_
*296 _107_
*297 _108_
*298 _109_
*299 _110_
*300 _111_
*301 _112_
*302 _113_
*303 _114_
*304 _115_
*305 _116_
*306 _117_
*307 _118_
*308 _119_
*309 _120_
*310 _121_
*311 _122_
*312 _123_
*313 _124_
*314 _125_
*315 _126_
*316 _127_
*317 _128_
*318 _129_
*319 _130_
*320 _131_
*321 _132_
*322 _133_
*323 _134_
*324 _135_
*325 _136_
*326 _137_
*327 _138_
*328 _139_
*329 _140_
*330 _141_
*331 _142_
*332 _143_
*333 _144_
*334 _145_
*335 _146_
*336 _147_
*337 _148_
*338 _149_
*339 _150_
*340 _151_
*341 _152_
*342 _153_
*343 _154_
*344 _155_
*345 _156_
*346 _157_
*347 _158_
*348 _159_
*349 _160_
*350 _161_
*351 _162_
*352 _163_
*353 _164_
*354 _165_
*355 _166_
*356 _167_
*357 _168_
*358 _169_
*359 _170_
*360 _171_
*361 _172_
*362 _173_
*363 _174_
*364 _175_
*365 _176_
*366 _177_
*367 _178_
*368 _179_
*369 _180_
*370 _181_
*371 _182_
*372 _183_
*373 _184_
*374 _185_
*375 _186_
*376 _187_
*377 _188_
*378 _189_
*379 _190_
*380 _191_
*381 _192_
*382 _193_
*383 _194_
*384 _195_
*385 _196_
*386 _197_
*387 _198_
*388 _199_
*389 _200_
*390 _201_
*391 _202_
*392 _203_
*393 _204_
*394 _205_
*395 _206_
*396 _207_
*397 _208_
*398 _209_
*399 _210_
*400 _211_
*401 _212_
*402 _213_
*403 _214_
*404 _215_
*405 _216_
*406 _217_
*407 _218_
*408 _219_
*409 _220_
*410 _221_
*411 _222_
*412 _223_
*413 _224_
*414 _225_
*415 _226_
*416 _227_
*417 _228_
*418 _229_
*419 _230_
*420 _231_
*421 _232_
*422 _233_
*423 _234_
*424 _235_
*425 _236_
*426 _237_
*427 _238_
*428 _239_
*429 _240_
*430 _241_
*431 _242_
*432 _243_
*433 _244_
*434 _245_
*435 _246_
*436 _247_
*437 _248_
*438 _249_
*439 _250_
*440 _251_
*441 _252_
*442 _253_
*443 _254_
*444 _255_
*445 _256_
*446 _257_
*447 _258_
*448 _259_
*449 _260_
*450 _261_
*451 _262_
*452 _263_
*453 _264_
*454 _265_
*455 _266_
*456 _267_
*457 _268_
*458 _269_
*459 _270_
*460 _271_
*461 _272_
*462 _273_
*463 _274_
*464 _275_
*465 _276_
*466 _277_
*467 _278_
*468 _279_
*469 _280_
*470 _281_
*471 _282_
*472 _283_
*473 _284_
*474 _285_
*475 _286_
*476 _287_
*477 _288_
*478 _289_
*479 _290_
*480 _291_
*481 _292_
*482 _293_
*483 _294_
*484 _295_
*485 _296_
*486 _297_
*487 _298_
*488 _299_
*489 _300_
*490 _301_
*491 _302_
*492 _303_
*493 _304_
*494 _305_
*495 _306_
*496 _307_
*497 _308_
*498 _309_
*499 _310_
*500 _311_
*501 _312_
*502 _313_
*503 _314_
*504 _315_
*505 _316_
*506 _317_
*507 _318_
*508 _319_
*509 _320_
*510 _321_
*511 _322_
*512 _323_
*513 _324_
*514 _325_
*515 _326_
*516 _327_
*517 _328_
*518 _329_
*519 _330_
*520 _331_
*521 _332_
*522 _333_
*523 _334_
*524 _335_
*525 _336_
*526 _337_
*527 _338_
*528 _339_
*529 _340_
*530 _341_
*531 _342_
*532 _343_
*533 _344_
*534 _345_
*535 _346_
*536 _347_
*537 ciclos\[0\]
*538 ciclos\[1\]
*539 ciclos\[2\]
*540 ciclos\[3\]
*541 contador\[0\]
*542 contador\[10\]
*543 contador\[11\]
*544 contador\[12\]
*545 contador\[13\]
*546 contador\[14\]
*547 contador\[15\]
*548 contador\[16\]
*549 contador\[17\]
*550 contador\[18\]
*551 contador\[19\]
*552 contador\[1\]
*553 contador\[20\]
*554 contador\[21\]
*555 contador\[22\]
*556 contador\[23\]
*557 contador\[24\]
*558 contador\[25\]
*559 contador\[26\]
*560 contador\[27\]
*561 contador\[28\]
*562 contador\[29\]
*563 contador\[2\]
*564 contador\[30\]
*565 contador\[31\]
*566 contador\[3\]
*567 contador\[4\]
*568 contador\[5\]
*569 contador\[6\]
*570 contador\[7\]
*571 contador\[8\]
*572 contador\[9\]
*573 contador_waves\[0\]
*574 contador_waves\[10\]
*575 contador_waves\[11\]
*576 contador_waves\[12\]
*577 contador_waves\[13\]
*578 contador_waves\[1\]
*579 contador_waves\[2\]
*580 contador_waves\[3\]
*581 contador_waves\[4\]
*582 contador_waves\[5\]
*583 contador_waves\[6\]
*584 contador_waves\[7\]
*585 contador_waves\[8\]
*586 contador_waves\[9\]
*587 estado\[0\]
*588 estado\[1\]
*589 f_sel_bit_counter\[0\]
*590 f_sel_bit_counter\[1\]
*591 f_sel_bit_counter\[2\]
*592 f_sel_sr\[0\]
*593 f_sel_sr\[1\]
*594 f_sel_sr\[2\]
*595 f_sel_sr\[3\]
*596 f_selected\[0\]
*597 f_selected\[1\]
*598 f_selected\[2\]
*599 f_selected\[3\]
*600 i_clk_mux
*601 i_clk_wb
*602 i_enable_wb
*603 i_f_select\[0\]
*604 i_f_select\[1\]
*605 i_f_select\[2\]
*606 i_f_select\[3\]
*607 i_f_select_wb\[0\]
*608 i_f_select_wb\[1\]
*609 i_f_select_wb\[2\]
*610 i_f_select_wb\[3\]
*611 i_test_reg
*612 net1
*613 net10
*614 net11
*615 net12
*616 net13
*617 net14
*618 net15
*619 net16
*620 net165
*621 net17
*622 net18
*623 net19
*624 net2
*625 net20
*626 net21
*627 net22
*628 net23
*629 net24
*630 net25
*631 net26
*632 net27
*633 net28
*634 net29
*635 net3
*636 net30
*637 net31
*638 net32
*639 net33
*640 net34
*641 net35
*642 net36
*643 net37
*644 net38
*645 net39
*646 net4
*647 net40
*648 net41
*649 net42
*650 net43
*651 net44
*652 net45
*653 net46
*654 net47
*655 net48
*656 net49
*657 net5
*658 net50
*659 net51
*660 net52
*661 net53
*662 net54
*663 net55
*664 net56
*665 net57
*666 net58
*667 net59
*668 net6
*669 net60
*670 net61
*671 net62
*672 net63
*673 net64
*674 net65
*675 net66
*676 net67
*677 net68
*678 net69
*679 net7
*680 net70
*681 net71
*682 net72
*683 net73
*684 net74
*685 net75
*686 net76
*687 net77
*688 net78
*689 net79
*690 net8
*691 net80
*692 net81
*693 net82
*694 net83
*695 net84
*696 net85
*697 net86
*698 net9
*699 o_phi_l1
*700 o_phi_l2
*701 o_phi_p
*702 o_phi_r
*703 o_test\[0\]
*704 o_test\[1\]
*705 o_test\[2\]
*706 ANTENNA__349__A
*707 ANTENNA__360__A0
*708 ANTENNA__360__S
*709 ANTENNA__370__A
*710 ANTENNA__370__B
*711 ANTENNA__371__A
*712 ANTENNA__371__B
*713 ANTENNA__372__A
*714 ANTENNA__373__A
*715 ANTENNA__373__C
*716 ANTENNA__373__D_N
*717 ANTENNA__374__B1_N
*718 ANTENNA__375__A2
*719 ANTENNA__375__B1
*720 ANTENNA__376__A
*721 ANTENNA__377__A_N
*722 ANTENNA__377__B
*723 ANTENNA__378__A1
*724 ANTENNA__378__A2
*725 ANTENNA__379__A1
*726 ANTENNA__380__A
*727 ANTENNA__381__A
*728 ANTENNA__381__D_N
*729 ANTENNA__384__B
*730 ANTENNA__384__C
*731 ANTENNA__385__A
*732 ANTENNA__386__A1
*733 ANTENNA__387__A_N
*734 ANTENNA__387__D
*735 ANTENNA__388__A_N
*736 ANTENNA__389__A_N
*737 ANTENNA__390__A_N
*738 ANTENNA__391__A_N
*739 ANTENNA__391__B
*740 ANTENNA__391__C
*741 ANTENNA__396__A
*742 ANTENNA__396__B
*743 ANTENNA__396__D_N
*744 ANTENNA__408__A_N
*745 ANTENNA__409__A1
*746 ANTENNA__409__B1
*747 ANTENNA__576__S
*748 ANTENNA__579__S
*749 ANTENNA__582__S
*750 ANTENNA__585__S
*751 ANTENNA__588__C
*752 ANTENNA__590__C
*753 ANTENNA__593__C
*754 ANTENNA__596__C
*755 ANTENNA__599__B
*756 ANTENNA__602__C
*757 ANTENNA__605__C
*758 ANTENNA__608__B
*759 ANTENNA__611__C
*760 ANTENNA__613__B
*761 ANTENNA__617__B
*762 ANTENNA__620__A
*763 ANTENNA__622__A
*764 ANTENNA__625__B
*765 ANTENNA__628__A
*766 ANTENNA__631__B
*767 ANTENNA__666__A
*768 ANTENNA__666__B
*769 ANTENNA__668__C1
*770 ANTENNA__668__D1
*771 ANTENNA__672__A
*772 ANTENNA__672__B
*773 ANTENNA__675__B
*774 ANTENNA__675__C
*775 ANTENNA__677__A
*776 ANTENNA__677__B
*777 ANTENNA__678__A1
*778 ANTENNA__678__S
*779 ANTENNA__680__S
*780 ANTENNA__681__A
*781 ANTENNA__682__S
*782 ANTENNA__683__A
*783 ANTENNA__684__S
*784 ANTENNA__685__A
*785 ANTENNA__687__A
*786 ANTENNA__688__A
*787 ANTENNA__690__A
*788 ANTENNA__691__A1
*789 ANTENNA__700__CLK
*790 ANTENNA__703__CLK
*791 ANTENNA__704__CLK
*792 ANTENNA__705__CLK
*793 ANTENNA__705__D
*794 ANTENNA__706__CLK
*795 ANTENNA__707__CLK
*796 ANTENNA__708__CLK
*797 ANTENNA__709__CLK
*798 ANTENNA__710__CLK
*799 ANTENNA__711__CLK
*800 ANTENNA__712__CLK
*801 ANTENNA__713__CLK
*802 ANTENNA__714__CLK
*803 ANTENNA__715__CLK
*804 ANTENNA__716__CLK
*805 ANTENNA__717__CLK
*806 ANTENNA__724__CLK
*807 ANTENNA__725__CLK
*808 ANTENNA__726__CLK
*809 ANTENNA__727__CLK
*810 ANTENNA__728__CLK
*811 ANTENNA__729__CLK
*812 ANTENNA__730__CLK
*813 ANTENNA__734__CLK
*814 ANTENNA__735__CLK
*815 ANTENNA__742__CLK
*816 ANTENNA__742__D
*817 ANTENNA__743__CLK
*818 ANTENNA__744__CLK
*819 ANTENNA__745__CLK
*820 ANTENNA__746__CLK
*821 ANTENNA__747__CLK
*822 ANTENNA__748__CLK
*823 ANTENNA__749__CLK
*824 ANTENNA__750__CLK
*825 ANTENNA__751__CLK
*826 ANTENNA__752__CLK
*827 ANTENNA__753__CLK
*828 ANTENNA__754__CLK
*829 ANTENNA__755__CLK
*830 ANTENNA__756__CLK
*831 ANTENNA__757__CLK
*832 ANTENNA__758__CLK
*833 ANTENNA__770__CLK
*834 ANTENNA__771__CLK
*835 ANTENNA__772__CLK
*836 ANTENNA__773__CLK
*837 ANTENNA__774__CLK
*838 ANTENNA__776__CLK
*839 ANTENNA__777__CLK
*840 ANTENNA__778__CLK
*841 ANTENNA__782__CLK
*842 ANTENNA__783__CLK
*843 ANTENNA__784__CLK
*844 ANTENNA__785__CLK
*845 ANTENNA_fanout56_A
*846 ANTENNA_fanout70_A
*847 ANTENNA_fanout73_A
*848 ANTENNA_fanout74_A
*849 ANTENNA_fanout75_A
*850 ANTENNA_fanout76_A
*851 ANTENNA_input10_A
*852 ANTENNA_input11_A
*853 ANTENNA_input12_A
*854 ANTENNA_input13_A
*855 ANTENNA_input14_A
*856 ANTENNA_input15_A
*857 ANTENNA_input16_A
*858 ANTENNA_input17_A
*859 ANTENNA_input18_A
*860 ANTENNA_input19_A
*861 ANTENNA_input1_A
*862 ANTENNA_input20_A
*863 ANTENNA_input21_A
*864 ANTENNA_input22_A
*865 ANTENNA_input23_A
*866 ANTENNA_input24_A
*867 ANTENNA_input25_A
*868 ANTENNA_input26_A
*869 ANTENNA_input27_A
*870 ANTENNA_input28_A
*871 ANTENNA_input29_A
*872 ANTENNA_input2_A
*873 ANTENNA_input30_A
*874 ANTENNA_input31_A
*875 ANTENNA_input32_A
*876 ANTENNA_input33_A
*877 ANTENNA_input34_A
*878 ANTENNA_input35_A
*879 ANTENNA_input36_A
*880 ANTENNA_input37_A
*881 ANTENNA_input38_A
*882 ANTENNA_input39_A
*883 ANTENNA_input3_A
*884 ANTENNA_input40_A
*885 ANTENNA_input41_A
*886 ANTENNA_input42_A
*887 ANTENNA_input43_A
*888 ANTENNA_input44_A
*889 ANTENNA_input45_A
*890 ANTENNA_input46_A
*891 ANTENNA_input4_A
*892 ANTENNA_input5_A
*893 ANTENNA_input6_A
*894 ANTENNA_input7_A
*895 ANTENNA_input8_A
*896 ANTENNA_input9_A
*897 ANTENNA_output47_A
*898 ANTENNA_output48_A
*899 ANTENNA_output49_A
*900 ANTENNA_output50_A
*901 ANTENNA_output51_A
*902 ANTENNA_output52_A
*903 ANTENNA_output53_A
*904 ANTENNA_output55_A
*905 ANTENNA_wire61_A
*906 ANTENNA_wire62_A
*907 ANTENNA_wire63_A
*908 ANTENNA_wire64_A
*909 ANTENNA_wire65_A
*910 ANTENNA_wire66_A
*911 ANTENNA_wire67_A
*912 ANTENNA_wire68_A
*913 ANTENNA_wire78_A
*914 ANTENNA_wire79_A
*915 ANTENNA_wire80_A
*916 ANTENNA_wire82_A
*917 FILLER_0_0_1007
*918 FILLER_0_0_1012
*919 FILLER_0_0_1023
*920 FILLER_0_0_1031
*921 FILLER_0_0_1035
*922 FILLER_0_0_1037
*923 FILLER_0_0_1043
*924 FILLER_0_0_1047
*925 FILLER_0_0_105
*926 FILLER_0_0_1055
*927 FILLER_0_0_1059
*928 FILLER_0_0_1063
*929 FILLER_0_0_1065
*930 FILLER_0_0_1071
*931 FILLER_0_0_1079
*932 FILLER_0_0_1083
*933 FILLER_0_0_1091
*934 FILLER_0_0_1096
*935 FILLER_0_0_1107
*936 FILLER_0_0_111
*937 FILLER_0_0_1115
*938 FILLER_0_0_1119
*939 FILLER_0_0_1121
*940 FILLER_0_0_1127
*941 FILLER_0_0_113
*942 FILLER_0_0_1131
*943 FILLER_0_0_1139
*944 FILLER_0_0_1143
*945 FILLER_0_0_1147
*946 FILLER_0_0_1149
*947 FILLER_0_0_1155
*948 FILLER_0_0_1163
*949 FILLER_0_0_1167
*950 FILLER_0_0_117
*951 FILLER_0_0_1175
*952 FILLER_0_0_1180
*953 FILLER_0_0_1191
*954 FILLER_0_0_1203
*955 FILLER_0_0_1205
*956 FILLER_0_0_1217
*957 FILLER_0_0_1223
*958 FILLER_0_0_123
*959 FILLER_0_0_1233
*960 FILLER_0_0_129
*961 FILLER_0_0_135
*962 FILLER_0_0_139
*963 FILLER_0_0_141
*964 FILLER_0_0_147
*965 FILLER_0_0_151
*966 FILLER_0_0_159
*967 FILLER_0_0_167
*968 FILLER_0_0_172
*969 FILLER_0_0_176
*970 FILLER_0_0_18
*971 FILLER_0_0_183
*972 FILLER_0_0_189
*973 FILLER_0_0_195
*974 FILLER_0_0_197
*975 FILLER_0_0_201
*976 FILLER_0_0_207
*977 FILLER_0_0_213
*978 FILLER_0_0_219
*979 FILLER_0_0_223
*980 FILLER_0_0_225
*981 FILLER_0_0_231
*982 FILLER_0_0_235
*983 FILLER_0_0_243
*984 FILLER_0_0_251
*985 FILLER_0_0_256
*986 FILLER_0_0_26
*987 FILLER_0_0_260
*988 FILLER_0_0_267
*989 FILLER_0_0_273
*990 FILLER_0_0_279
*991 FILLER_0_0_281
*992 FILLER_0_0_285
*993 FILLER_0_0_291
*994 FILLER_0_0_297
*995 FILLER_0_0_303
*996 FILLER_0_0_307
*997 FILLER_0_0_309
*998 FILLER_0_0_315
*999 FILLER_0_0_319
*1000 FILLER_0_0_327
*1001 FILLER_0_0_335
*1002 FILLER_0_0_340
*1003 FILLER_0_0_344
*1004 FILLER_0_0_351
*1005 FILLER_0_0_356
*1006 FILLER_0_0_363
*1007 FILLER_0_0_365
*1008 FILLER_0_0_369
*1009 FILLER_0_0_375
*1010 FILLER_0_0_380
*1011 FILLER_0_0_387
*1012 FILLER_0_0_393
*1013 FILLER_0_0_399
*1014 FILLER_0_0_405
*1015 FILLER_0_0_411
*1016 FILLER_0_0_415
*1017 FILLER_0_0_419
*1018 FILLER_0_0_424
*1019 FILLER_0_0_428
*1020 FILLER_0_0_435
*1021 FILLER_0_0_441
*1022 FILLER_0_0_447
*1023 FILLER_0_0_449
*1024 FILLER_0_0_453
*1025 FILLER_0_0_459
*1026 FILLER_0_0_465
*1027 FILLER_0_0_471
*1028 FILLER_0_0_475
*1029 FILLER_0_0_477
*1030 FILLER_0_0_489
*1031 FILLER_0_0_49
*1032 FILLER_0_0_501
*1033 FILLER_0_0_505
*1034 FILLER_0_0_517
*1035 FILLER_0_0_529
*1036 FILLER_0_0_53
*1037 FILLER_0_0_533
*1038 FILLER_0_0_545
*1039 FILLER_0_0_557
*1040 FILLER_0_0_561
*1041 FILLER_0_0_573
*1042 FILLER_0_0_585
*1043 FILLER_0_0_589
*1044 FILLER_0_0_601
*1045 FILLER_0_0_613
*1046 FILLER_0_0_617
*1047 FILLER_0_0_629
*1048 FILLER_0_0_641
*1049 FILLER_0_0_645
*1050 FILLER_0_0_657
*1051 FILLER_0_0_669
*1052 FILLER_0_0_673
*1053 FILLER_0_0_685
*1054 FILLER_0_0_697
*1055 FILLER_0_0_701
*1056 FILLER_0_0_71
*1057 FILLER_0_0_713
*1058 FILLER_0_0_725
*1059 FILLER_0_0_729
*1060 FILLER_0_0_741
*1061 FILLER_0_0_753
*1062 FILLER_0_0_757
*1063 FILLER_0_0_76
*1064 FILLER_0_0_769
*1065 FILLER_0_0_781
*1066 FILLER_0_0_785
*1067 FILLER_0_0_797
*1068 FILLER_0_0_80
*1069 FILLER_0_0_809
*1070 FILLER_0_0_813
*1071 FILLER_0_0_835
*1072 FILLER_0_0_839
*1073 FILLER_0_0_844
*1074 FILLER_0_0_855
*1075 FILLER_0_0_863
*1076 FILLER_0_0_867
*1077 FILLER_0_0_869
*1078 FILLER_0_0_875
*1079 FILLER_0_0_879
*1080 FILLER_0_0_887
*1081 FILLER_0_0_89
*1082 FILLER_0_0_891
*1083 FILLER_0_0_895
*1084 FILLER_0_0_897
*1085 FILLER_0_0_9
*1086 FILLER_0_0_903
*1087 FILLER_0_0_911
*1088 FILLER_0_0_915
*1089 FILLER_0_0_923
*1090 FILLER_0_0_928
*1091 FILLER_0_0_93
*1092 FILLER_0_0_939
*1093 FILLER_0_0_947
*1094 FILLER_0_0_951
*1095 FILLER_0_0_953
*1096 FILLER_0_0_959
*1097 FILLER_0_0_963
*1098 FILLER_0_0_971
*1099 FILLER_0_0_975
*1100 FILLER_0_0_979
*1101 FILLER_0_0_981
*1102 FILLER_0_0_987
*1103 FILLER_0_0_99
*1104 FILLER_0_0_995
*1105 FILLER_0_0_999
*1106 FILLER_0_100_1005
*1107 FILLER_0_100_1017
*1108 FILLER_0_100_1029
*1109 FILLER_0_100_1035
*1110 FILLER_0_100_1037
*1111 FILLER_0_100_1049
*1112 FILLER_0_100_1061
*1113 FILLER_0_100_1073
*1114 FILLER_0_100_1085
*1115 FILLER_0_100_109
*1116 FILLER_0_100_1091
*1117 FILLER_0_100_1093
*1118 FILLER_0_100_1105
*1119 FILLER_0_100_1117
*1120 FILLER_0_100_1129
*1121 FILLER_0_100_1141
*1122 FILLER_0_100_1147
*1123 FILLER_0_100_1149
*1124 FILLER_0_100_1161
*1125 FILLER_0_100_1173
*1126 FILLER_0_100_1185
*1127 FILLER_0_100_1197
*1128 FILLER_0_100_1203
*1129 FILLER_0_100_1205
*1130 FILLER_0_100_121
*1131 FILLER_0_100_1217
*1132 FILLER_0_100_1229
*1133 FILLER_0_100_133
*1134 FILLER_0_100_139
*1135 FILLER_0_100_141
*1136 FILLER_0_100_15
*1137 FILLER_0_100_153
*1138 FILLER_0_100_165
*1139 FILLER_0_100_177
*1140 FILLER_0_100_189
*1141 FILLER_0_100_195
*1142 FILLER_0_100_197
*1143 FILLER_0_100_209
*1144 FILLER_0_100_221
*1145 FILLER_0_100_233
*1146 FILLER_0_100_245
*1147 FILLER_0_100_251
*1148 FILLER_0_100_253
*1149 FILLER_0_100_265
*1150 FILLER_0_100_27
*1151 FILLER_0_100_277
*1152 FILLER_0_100_289
*1153 FILLER_0_100_29
*1154 FILLER_0_100_3
*1155 FILLER_0_100_301
*1156 FILLER_0_100_307
*1157 FILLER_0_100_309
*1158 FILLER_0_100_321
*1159 FILLER_0_100_333
*1160 FILLER_0_100_345
*1161 FILLER_0_100_357
*1162 FILLER_0_100_363
*1163 FILLER_0_100_365
*1164 FILLER_0_100_377
*1165 FILLER_0_100_389
*1166 FILLER_0_100_401
*1167 FILLER_0_100_41
*1168 FILLER_0_100_413
*1169 FILLER_0_100_419
*1170 FILLER_0_100_421
*1171 FILLER_0_100_433
*1172 FILLER_0_100_445
*1173 FILLER_0_100_457
*1174 FILLER_0_100_469
*1175 FILLER_0_100_475
*1176 FILLER_0_100_477
*1177 FILLER_0_100_489
*1178 FILLER_0_100_501
*1179 FILLER_0_100_513
*1180 FILLER_0_100_525
*1181 FILLER_0_100_53
*1182 FILLER_0_100_531
*1183 FILLER_0_100_533
*1184 FILLER_0_100_545
*1185 FILLER_0_100_557
*1186 FILLER_0_100_569
*1187 FILLER_0_100_581
*1188 FILLER_0_100_587
*1189 FILLER_0_100_589
*1190 FILLER_0_100_601
*1191 FILLER_0_100_613
*1192 FILLER_0_100_625
*1193 FILLER_0_100_637
*1194 FILLER_0_100_643
*1195 FILLER_0_100_645
*1196 FILLER_0_100_65
*1197 FILLER_0_100_657
*1198 FILLER_0_100_669
*1199 FILLER_0_100_681
*1200 FILLER_0_100_693
*1201 FILLER_0_100_699
*1202 FILLER_0_100_701
*1203 FILLER_0_100_713
*1204 FILLER_0_100_725
*1205 FILLER_0_100_737
*1206 FILLER_0_100_749
*1207 FILLER_0_100_755
*1208 FILLER_0_100_757
*1209 FILLER_0_100_769
*1210 FILLER_0_100_77
*1211 FILLER_0_100_781
*1212 FILLER_0_100_793
*1213 FILLER_0_100_805
*1214 FILLER_0_100_811
*1215 FILLER_0_100_813
*1216 FILLER_0_100_825
*1217 FILLER_0_100_83
*1218 FILLER_0_100_837
*1219 FILLER_0_100_849
*1220 FILLER_0_100_85
*1221 FILLER_0_100_861
*1222 FILLER_0_100_867
*1223 FILLER_0_100_869
*1224 FILLER_0_100_881
*1225 FILLER_0_100_893
*1226 FILLER_0_100_905
*1227 FILLER_0_100_917
*1228 FILLER_0_100_923
*1229 FILLER_0_100_925
*1230 FILLER_0_100_937
*1231 FILLER_0_100_949
*1232 FILLER_0_100_961
*1233 FILLER_0_100_97
*1234 FILLER_0_100_973
*1235 FILLER_0_100_979
*1236 FILLER_0_100_981
*1237 FILLER_0_100_993
*1238 FILLER_0_101_1001
*1239 FILLER_0_101_1007
*1240 FILLER_0_101_1009
*1241 FILLER_0_101_1021
*1242 FILLER_0_101_1033
*1243 FILLER_0_101_1045
*1244 FILLER_0_101_105
*1245 FILLER_0_101_1057
*1246 FILLER_0_101_1063
*1247 FILLER_0_101_1065
*1248 FILLER_0_101_1077
*1249 FILLER_0_101_1089
*1250 FILLER_0_101_1101
*1251 FILLER_0_101_111
*1252 FILLER_0_101_1113
*1253 FILLER_0_101_1119
*1254 FILLER_0_101_1121
*1255 FILLER_0_101_113
*1256 FILLER_0_101_1133
*1257 FILLER_0_101_1145
*1258 FILLER_0_101_1157
*1259 FILLER_0_101_1169
*1260 FILLER_0_101_1175
*1261 FILLER_0_101_1177
*1262 FILLER_0_101_1189
*1263 FILLER_0_101_1201
*1264 FILLER_0_101_1213
*1265 FILLER_0_101_1225
*1266 FILLER_0_101_1231
*1267 FILLER_0_101_1233
*1268 FILLER_0_101_125
*1269 FILLER_0_101_137
*1270 FILLER_0_101_149
*1271 FILLER_0_101_161
*1272 FILLER_0_101_167
*1273 FILLER_0_101_169
*1274 FILLER_0_101_18
*1275 FILLER_0_101_181
*1276 FILLER_0_101_193
*1277 FILLER_0_101_205
*1278 FILLER_0_101_217
*1279 FILLER_0_101_223
*1280 FILLER_0_101_225
*1281 FILLER_0_101_237
*1282 FILLER_0_101_249
*1283 FILLER_0_101_261
*1284 FILLER_0_101_273
*1285 FILLER_0_101_279
*1286 FILLER_0_101_281
*1287 FILLER_0_101_293
*1288 FILLER_0_101_30
*1289 FILLER_0_101_305
*1290 FILLER_0_101_317
*1291 FILLER_0_101_329
*1292 FILLER_0_101_335
*1293 FILLER_0_101_337
*1294 FILLER_0_101_349
*1295 FILLER_0_101_361
*1296 FILLER_0_101_373
*1297 FILLER_0_101_385
*1298 FILLER_0_101_391
*1299 FILLER_0_101_393
*1300 FILLER_0_101_405
*1301 FILLER_0_101_417
*1302 FILLER_0_101_42
*1303 FILLER_0_101_429
*1304 FILLER_0_101_441
*1305 FILLER_0_101_447
*1306 FILLER_0_101_449
*1307 FILLER_0_101_461
*1308 FILLER_0_101_473
*1309 FILLER_0_101_485
*1310 FILLER_0_101_497
*1311 FILLER_0_101_503
*1312 FILLER_0_101_505
*1313 FILLER_0_101_517
*1314 FILLER_0_101_529
*1315 FILLER_0_101_54
*1316 FILLER_0_101_541
*1317 FILLER_0_101_553
*1318 FILLER_0_101_559
*1319 FILLER_0_101_561
*1320 FILLER_0_101_57
*1321 FILLER_0_101_573
*1322 FILLER_0_101_585
*1323 FILLER_0_101_597
*1324 FILLER_0_101_6
*1325 FILLER_0_101_609
*1326 FILLER_0_101_615
*1327 FILLER_0_101_617
*1328 FILLER_0_101_629
*1329 FILLER_0_101_641
*1330 FILLER_0_101_653
*1331 FILLER_0_101_665
*1332 FILLER_0_101_671
*1333 FILLER_0_101_673
*1334 FILLER_0_101_685
*1335 FILLER_0_101_69
*1336 FILLER_0_101_697
*1337 FILLER_0_101_709
*1338 FILLER_0_101_721
*1339 FILLER_0_101_727
*1340 FILLER_0_101_729
*1341 FILLER_0_101_741
*1342 FILLER_0_101_753
*1343 FILLER_0_101_765
*1344 FILLER_0_101_777
*1345 FILLER_0_101_783
*1346 FILLER_0_101_785
*1347 FILLER_0_101_797
*1348 FILLER_0_101_809
*1349 FILLER_0_101_81
*1350 FILLER_0_101_821
*1351 FILLER_0_101_833
*1352 FILLER_0_101_839
*1353 FILLER_0_101_841
*1354 FILLER_0_101_853
*1355 FILLER_0_101_865
*1356 FILLER_0_101_877
*1357 FILLER_0_101_889
*1358 FILLER_0_101_895
*1359 FILLER_0_101_897
*1360 FILLER_0_101_909
*1361 FILLER_0_101_921
*1362 FILLER_0_101_93
*1363 FILLER_0_101_933
*1364 FILLER_0_101_945
*1365 FILLER_0_101_951
*1366 FILLER_0_101_953
*1367 FILLER_0_101_965
*1368 FILLER_0_101_977
*1369 FILLER_0_101_989
*1370 FILLER_0_102_1005
*1371 FILLER_0_102_1017
*1372 FILLER_0_102_1029
*1373 FILLER_0_102_1035
*1374 FILLER_0_102_1037
*1375 FILLER_0_102_1049
*1376 FILLER_0_102_1061
*1377 FILLER_0_102_1073
*1378 FILLER_0_102_1085
*1379 FILLER_0_102_109
*1380 FILLER_0_102_1091
*1381 FILLER_0_102_1093
*1382 FILLER_0_102_1105
*1383 FILLER_0_102_1117
*1384 FILLER_0_102_1129
*1385 FILLER_0_102_1141
*1386 FILLER_0_102_1147
*1387 FILLER_0_102_1149
*1388 FILLER_0_102_1161
*1389 FILLER_0_102_1173
*1390 FILLER_0_102_1185
*1391 FILLER_0_102_1197
*1392 FILLER_0_102_1203
*1393 FILLER_0_102_1205
*1394 FILLER_0_102_121
*1395 FILLER_0_102_1217
*1396 FILLER_0_102_1229
*1397 FILLER_0_102_133
*1398 FILLER_0_102_139
*1399 FILLER_0_102_141
*1400 FILLER_0_102_15
*1401 FILLER_0_102_153
*1402 FILLER_0_102_165
*1403 FILLER_0_102_177
*1404 FILLER_0_102_189
*1405 FILLER_0_102_195
*1406 FILLER_0_102_197
*1407 FILLER_0_102_209
*1408 FILLER_0_102_221
*1409 FILLER_0_102_233
*1410 FILLER_0_102_245
*1411 FILLER_0_102_251
*1412 FILLER_0_102_253
*1413 FILLER_0_102_265
*1414 FILLER_0_102_27
*1415 FILLER_0_102_277
*1416 FILLER_0_102_289
*1417 FILLER_0_102_29
*1418 FILLER_0_102_3
*1419 FILLER_0_102_301
*1420 FILLER_0_102_307
*1421 FILLER_0_102_309
*1422 FILLER_0_102_321
*1423 FILLER_0_102_333
*1424 FILLER_0_102_345
*1425 FILLER_0_102_357
*1426 FILLER_0_102_363
*1427 FILLER_0_102_365
*1428 FILLER_0_102_377
*1429 FILLER_0_102_389
*1430 FILLER_0_102_401
*1431 FILLER_0_102_41
*1432 FILLER_0_102_413
*1433 FILLER_0_102_419
*1434 FILLER_0_102_421
*1435 FILLER_0_102_433
*1436 FILLER_0_102_445
*1437 FILLER_0_102_457
*1438 FILLER_0_102_469
*1439 FILLER_0_102_475
*1440 FILLER_0_102_477
*1441 FILLER_0_102_489
*1442 FILLER_0_102_501
*1443 FILLER_0_102_513
*1444 FILLER_0_102_525
*1445 FILLER_0_102_53
*1446 FILLER_0_102_531
*1447 FILLER_0_102_533
*1448 FILLER_0_102_545
*1449 FILLER_0_102_557
*1450 FILLER_0_102_569
*1451 FILLER_0_102_581
*1452 FILLER_0_102_587
*1453 FILLER_0_102_589
*1454 FILLER_0_102_601
*1455 FILLER_0_102_613
*1456 FILLER_0_102_625
*1457 FILLER_0_102_637
*1458 FILLER_0_102_643
*1459 FILLER_0_102_645
*1460 FILLER_0_102_65
*1461 FILLER_0_102_657
*1462 FILLER_0_102_669
*1463 FILLER_0_102_681
*1464 FILLER_0_102_693
*1465 FILLER_0_102_699
*1466 FILLER_0_102_701
*1467 FILLER_0_102_713
*1468 FILLER_0_102_725
*1469 FILLER_0_102_737
*1470 FILLER_0_102_749
*1471 FILLER_0_102_755
*1472 FILLER_0_102_757
*1473 FILLER_0_102_769
*1474 FILLER_0_102_77
*1475 FILLER_0_102_781
*1476 FILLER_0_102_793
*1477 FILLER_0_102_805
*1478 FILLER_0_102_811
*1479 FILLER_0_102_813
*1480 FILLER_0_102_825
*1481 FILLER_0_102_83
*1482 FILLER_0_102_837
*1483 FILLER_0_102_849
*1484 FILLER_0_102_85
*1485 FILLER_0_102_861
*1486 FILLER_0_102_867
*1487 FILLER_0_102_869
*1488 FILLER_0_102_881
*1489 FILLER_0_102_893
*1490 FILLER_0_102_905
*1491 FILLER_0_102_917
*1492 FILLER_0_102_923
*1493 FILLER_0_102_925
*1494 FILLER_0_102_937
*1495 FILLER_0_102_949
*1496 FILLER_0_102_959
*1497 FILLER_0_102_97
*1498 FILLER_0_102_971
*1499 FILLER_0_102_979
*1500 FILLER_0_102_981
*1501 FILLER_0_102_993
*1502 FILLER_0_103_1001
*1503 FILLER_0_103_1007
*1504 FILLER_0_103_1009
*1505 FILLER_0_103_1021
*1506 FILLER_0_103_1033
*1507 FILLER_0_103_1045
*1508 FILLER_0_103_105
*1509 FILLER_0_103_1057
*1510 FILLER_0_103_1063
*1511 FILLER_0_103_1065
*1512 FILLER_0_103_1077
*1513 FILLER_0_103_1089
*1514 FILLER_0_103_1101
*1515 FILLER_0_103_111
*1516 FILLER_0_103_1113
*1517 FILLER_0_103_1119
*1518 FILLER_0_103_1121
*1519 FILLER_0_103_113
*1520 FILLER_0_103_1133
*1521 FILLER_0_103_1145
*1522 FILLER_0_103_1157
*1523 FILLER_0_103_1169
*1524 FILLER_0_103_1175
*1525 FILLER_0_103_1177
*1526 FILLER_0_103_1189
*1527 FILLER_0_103_1201
*1528 FILLER_0_103_1213
*1529 FILLER_0_103_1225
*1530 FILLER_0_103_1231
*1531 FILLER_0_103_1233
*1532 FILLER_0_103_125
*1533 FILLER_0_103_137
*1534 FILLER_0_103_149
*1535 FILLER_0_103_15
*1536 FILLER_0_103_161
*1537 FILLER_0_103_167
*1538 FILLER_0_103_169
*1539 FILLER_0_103_181
*1540 FILLER_0_103_193
*1541 FILLER_0_103_205
*1542 FILLER_0_103_217
*1543 FILLER_0_103_223
*1544 FILLER_0_103_225
*1545 FILLER_0_103_237
*1546 FILLER_0_103_249
*1547 FILLER_0_103_261
*1548 FILLER_0_103_27
*1549 FILLER_0_103_273
*1550 FILLER_0_103_279
*1551 FILLER_0_103_281
*1552 FILLER_0_103_293
*1553 FILLER_0_103_3
*1554 FILLER_0_103_305
*1555 FILLER_0_103_317
*1556 FILLER_0_103_329
*1557 FILLER_0_103_335
*1558 FILLER_0_103_337
*1559 FILLER_0_103_349
*1560 FILLER_0_103_361
*1561 FILLER_0_103_373
*1562 FILLER_0_103_385
*1563 FILLER_0_103_39
*1564 FILLER_0_103_391
*1565 FILLER_0_103_393
*1566 FILLER_0_103_405
*1567 FILLER_0_103_417
*1568 FILLER_0_103_429
*1569 FILLER_0_103_441
*1570 FILLER_0_103_447
*1571 FILLER_0_103_449
*1572 FILLER_0_103_461
*1573 FILLER_0_103_473
*1574 FILLER_0_103_485
*1575 FILLER_0_103_497
*1576 FILLER_0_103_503
*1577 FILLER_0_103_505
*1578 FILLER_0_103_51
*1579 FILLER_0_103_517
*1580 FILLER_0_103_529
*1581 FILLER_0_103_541
*1582 FILLER_0_103_55
*1583 FILLER_0_103_553
*1584 FILLER_0_103_559
*1585 FILLER_0_103_561
*1586 FILLER_0_103_57
*1587 FILLER_0_103_573
*1588 FILLER_0_103_585
*1589 FILLER_0_103_597
*1590 FILLER_0_103_609
*1591 FILLER_0_103_615
*1592 FILLER_0_103_617
*1593 FILLER_0_103_629
*1594 FILLER_0_103_641
*1595 FILLER_0_103_653
*1596 FILLER_0_103_665
*1597 FILLER_0_103_671
*1598 FILLER_0_103_673
*1599 FILLER_0_103_685
*1600 FILLER_0_103_69
*1601 FILLER_0_103_697
*1602 FILLER_0_103_709
*1603 FILLER_0_103_721
*1604 FILLER_0_103_727
*1605 FILLER_0_103_729
*1606 FILLER_0_103_741
*1607 FILLER_0_103_753
*1608 FILLER_0_103_765
*1609 FILLER_0_103_777
*1610 FILLER_0_103_783
*1611 FILLER_0_103_785
*1612 FILLER_0_103_797
*1613 FILLER_0_103_809
*1614 FILLER_0_103_81
*1615 FILLER_0_103_821
*1616 FILLER_0_103_833
*1617 FILLER_0_103_839
*1618 FILLER_0_103_841
*1619 FILLER_0_103_853
*1620 FILLER_0_103_865
*1621 FILLER_0_103_877