*SPEF "ieee 1481-1999"
*DESIGN "test_mixer"
*DATE "11:11:11 Fri 11 11, 1111"
*VENDOR "OpenRCX"
*PROGRAM "Parallel Extraction"
*VERSION "1.0"
*DESIGN_FLOW "NAME_SCOPE LOCAL" "PIN_CAP NONE"
*DIVIDER /
*DELIMITER :
*BUS_DELIMITER []
*T_UNIT 1 NS
*C_UNIT 1 PF
*R_UNIT 1 OHM
*L_UNIT 1 HENRY

*NAME_MAP
*1 io_in[0]
*2 io_in[10]
*3 io_in[11]
*4 io_in[12]
*5 io_in[13]
*6 io_in[14]
*7 io_in[15]
*8 io_in[16]
*9 io_in[17]
*10 io_in[18]
*11 io_in[19]
*12 io_in[1]
*13 io_in[20]
*14 io_in[21]
*15 io_in[22]
*16 io_in[23]
*17 io_in[24]
*18 io_in[25]
*19 io_in[26]
*20 io_in[2]
*21 io_in[3]
*22 io_in[4]
*23 io_in[5]
*24 io_in[6]
*25 io_in[7]
*26 io_in[8]
*27 io_in[9]
*28 net92
*29 net102
*30 net103
*31 net104
*32 net105
*33 net106
*34 net107
*35 net108
*36 net109
*37 net110
*38 net111
*39 net93
*40 net112
*41 net113
*42 net114
*43 net115
*44 net116
*45 net117
*46 net118
*47 net94
*48 net95
*49 net96
*50 net97
*51 net98
*52 net99
*53 net100
*54 net101
*55 net119
*56 net129
*57 net130
*58 net131
*59 net132
*60 net133
*61 net134
*62 net135
*63 net136
*64 net137
*65 net138
*66 net120
*67 net139
*68 net140
*69 net141
*70 net142
*71 io_out[24]
*72 net143
*73 net144
*74 net121
*75 net122
*76 net123
*77 net124
*78 net125
*79 net126
*80 net127
*81 net128
*84 wb_clk_i
*85 wb_rst_i
*86 wbs_ack_o
*87 wbs_adr_i[0]
*88 wbs_adr_i[10]
*89 wbs_adr_i[11]
*90 wbs_adr_i[12]
*91 wbs_adr_i[13]
*92 wbs_adr_i[14]
*93 wbs_adr_i[15]
*94 wbs_adr_i[16]
*95 wbs_adr_i[17]
*96 wbs_adr_i[18]
*97 wbs_adr_i[19]
*98 wbs_adr_i[1]
*99 wbs_adr_i[20]
*100 wbs_adr_i[21]
*101 wbs_adr_i[22]
*102 wbs_adr_i[23]
*103 wbs_adr_i[24]
*104 wbs_adr_i[25]
*105 wbs_adr_i[26]
*106 wbs_adr_i[27]
*107 wbs_adr_i[28]
*108 wbs_adr_i[29]
*109 wbs_adr_i[2]
*110 wbs_adr_i[30]
*111 wbs_adr_i[31]
*112 wbs_adr_i[3]
*113 wbs_adr_i[4]
*114 wbs_adr_i[5]
*115 wbs_adr_i[6]
*116 wbs_adr_i[7]
*117 wbs_adr_i[8]
*118 wbs_adr_i[9]
*119 wbs_cyc_i
*120 wbs_dat_i[0]
*121 wbs_dat_i[10]
*122 wbs_dat_i[11]
*123 wbs_dat_i[12]
*124 wbs_dat_i[13]
*125 wbs_dat_i[14]
*126 wbs_dat_i[15]
*127 wbs_dat_i[16]
*128 wbs_dat_i[17]
*129 wbs_dat_i[18]
*130 wbs_dat_i[19]
*131 wbs_dat_i[1]
*132 wbs_dat_i[20]
*133 wbs_dat_i[21]
*134 wbs_dat_i[22]
*135 wbs_dat_i[23]
*136 wbs_dat_i[24]
*137 wbs_dat_i[25]
*138 wbs_dat_i[26]
*139 wbs_dat_i[27]
*140 wbs_dat_i[28]
*141 wbs_dat_i[29]
*142 wbs_dat_i[2]
*143 wbs_dat_i[30]
*144 wbs_dat_i[31]
*145 wbs_dat_i[3]
*146 wbs_dat_i[4]
*147 wbs_dat_i[5]
*148 wbs_dat_i[6]
*149 wbs_dat_i[7]
*150 wbs_dat_i[8]
*151 wbs_dat_i[9]
*152 wbs_dat_o[0]
*153 wbs_dat_o[10]
*154 wbs_dat_o[11]
*155 wbs_dat_o[12]
*156 wbs_dat_o[13]
*157 wbs_dat_o[14]
*158 wbs_dat_o[15]
*159 wbs_dat_o[16]
*160 wbs_dat_o[17]
*161 wbs_dat_o[18]
*162 wbs_dat_o[19]
*163 wbs_dat_o[1]
*164 wbs_dat_o[20]
*165 wbs_dat_o[21]
*166 wbs_dat_o[22]
*167 wbs_dat_o[23]
*168 wbs_dat_o[24]
*169 wbs_dat_o[25]
*170 wbs_dat_o[26]
*171 wbs_dat_o[27]
*172 wbs_dat_o[28]
*173 wbs_dat_o[29]
*174 wbs_dat_o[2]
*175 wbs_dat_o[30]
*176 wbs_dat_o[31]
*177 wbs_dat_o[3]
*178 wbs_dat_o[4]
*179 wbs_dat_o[5]
*180 wbs_dat_o[6]
*181 wbs_dat_o[7]
*182 wbs_dat_o[8]
*183 wbs_dat_o[9]
*184 wbs_sel_i[0]
*185 wbs_sel_i[1]
*186 wbs_sel_i[2]
*187 wbs_sel_i[3]
*188 wbs_stb_i
*189 wbs_we_i
*190 _000_
*191 _001_
*192 _002_
*193 _003_
*194 _004_
*195 _005_
*196 _006_
*197 _007_
*198 _008_
*199 _009_
*200 _010_
*201 _011_
*202 _012_
*203 _013_
*204 _014_
*205 _015_
*206 _016_
*207 _017_
*208 _018_
*209 _019_
*210 _020_
*211 _021_
*212 _022_
*213 _023_
*214 _024_
*215 _025_
*216 _026_
*217 _027_
*218 _028_
*219 _029_
*220 _030_
*221 _031_
*222 _032_
*223 _033_
*224 _034_
*225 _035_
*226 _036_
*227 _037_
*228 _038_
*229 _039_
*230 _040_
*231 _041_
*232 _042_
*233 _043_
*234 _044_
*235 _045_
*236 _046_
*237 _047_
*238 _048_
*239 _049_
*240 _050_
*241 _051_
*242 _052_
*243 _053_
*244 _054_
*245 _055_
*246 _056_
*247 _057_
*248 _058_
*249 _059_
*250 _060_
*251 _061_
*252 _062_
*253 _063_
*254 _064_
*255 _065_
*256 _066_
*257 _067_
*258 _068_
*259 _069_
*260 _070_
*261 _071_
*262 _072_
*263 _073_
*264 _074_
*265 _075_
*266 _076_
*267 _077_
*268 _078_
*269 _079_
*270 _080_
*271 _081_
*272 _082_
*273 _083_
*274 _084_
*275 _085_
*276 _086_
*277 _087_
*278 _088_
*279 _089_
*280 _090_
*281 _091_
*282 _092_
*283 _093_
*284 _094_
*285 _095_
*286 _096_
*287 _097_
*288 _098_
*289 _099_
*290 _100_
*291 _101_
*292 _102_
*293 _103_
*294 _104_
*295 _105_
*296 _106_
*297 _107_
*298 _108_
*299 _109_
*300 _110_
*301 _111_
*302 _112_
*303 _113_
*304 _114_
*305 _115_
*306 _116_
*307 _117_
*308 _118_
*309 _119_
*310 _120_
*311 _121_
*312 _122_
*313 _123_
*314 _124_
*315 _125_
*316 _126_
*317 _127_
*318 _128_
*319 _129_
*320 _130_
*321 _131_
*322 _132_
*323 _133_
*324 _134_
*325 _135_
*326 _136_
*327 _137_
*328 _138_
*329 _139_
*330 _140_
*331 _141_
*332 _142_
*333 _143_
*334 _144_
*335 _145_
*336 _146_
*337 _147_
*338 _148_
*339 _149_
*340 _150_
*341 _151_
*342 _152_
*343 _153_
*344 _154_
*345 _155_
*346 _156_
*347 _157_
*348 _158_
*349 _159_
*350 _160_
*351 _161_
*352 _162_
*353 _163_
*354 _164_
*355 _165_
*356 _166_
*357 _167_
*358 _168_
*359 _169_
*360 _170_
*361 _171_
*362 _172_
*363 _173_
*364 _174_
*365 _175_
*366 _176_
*367 _177_
*368 _178_
*369 _179_
*370 _180_
*371 _181_
*372 _182_
*373 _183_
*374 _184_
*375 _185_
*376 _186_
*377 _187_
*378 _188_
*379 _189_
*380 _190_
*381 _191_
*382 _192_
*383 _193_
*384 _194_
*385 _195_
*386 _196_
*387 _197_
*388 _198_
*389 _199_
*390 _200_
*391 _201_
*392 _202_
*393 _203_
*394 _204_
*395 _205_
*396 _206_
*397 _207_
*398 _208_
*399 _209_
*400 clknet_0_wb_clk_i
*401 clknet_1_0_0_wb_clk_i
*402 clknet_1_1_0_wb_clk_i
*403 clknet_2_0__leaf_wb_clk_i
*404 clknet_2_1__leaf_wb_clk_i
*405 clknet_2_2__leaf_wb_clk_i
*406 clknet_2_3__leaf_wb_clk_i
*407 contador\[0\]
*408 contador\[10\]
*409 contador\[11\]
*410 contador\[12\]
*411 contador\[13\]
*412 contador\[14\]
*413 contador\[15\]
*414 contador\[16\]
*415 contador\[17\]
*416 contador\[18\]
*417 contador\[19\]
*418 contador\[1\]
*419 contador\[20\]
*420 contador\[21\]
*421 contador\[22\]
*422 contador\[23\]
*423 contador\[24\]
*424 contador\[25\]
*425 contador\[26\]
*426 contador\[27\]
*427 contador\[28\]
*428 contador\[29\]
*429 contador\[2\]
*430 contador\[30\]
*431 contador\[31\]
*432 contador\[3\]
*433 contador\[4\]
*434 contador\[5\]
*435 contador\[6\]
*436 contador\[7\]
*437 contador\[8\]
*438 contador\[9\]
*439 net1
*440 net10
*441 net11
*442 net12
*443 net13
*444 net14
*445 net145
*446 net146
*447 net147
*448 net148
*449 net149
*450 net15
*451 net150
*452 net151
*453 net152
*454 net153
*455 net154
*456 net155
*457 net156
*458 net157
*459 net158
*460 net159
*461 net16
*462 net160
*463 net161
*464 net162
*465 net163
*466 net164
*467 net165
*468 net166
*469 net167
*470 net168
*471 net169
*472 net17
*473 net170
*474 net171
*475 net172
*476 net173
*477 net174
*478 net175
*479 net176
*480 net177
*481 net178
*482 net179
*483 net18
*484 net180
*485 net181
*486 net182
*487 net183
*488 net184
*489 net185
*490 net186
*491 net187
*492 net188
*493 net189
*494 net19
*495 net190
*496 net191
*497 net192
*498 net193
*499 net194
*500 net195
*501 net196
*502 net197
*503 net198
*504 net199
*505 net2
*506 net20
*507 net200
*508 net201
*509 net202
*510 net203
*511 net204
*512 net205
*513 net206
*514 net207
*515 net208
*516 net209
*517 net21
*518 net210
*519 net211
*520 net212
*521 net213
*522 net214
*523 net215
*524 net216
*525 net217
*526 net218
*527 net219
*528 net22
*529 net220
*530 net221
*531 net222
*532 net223
*533 net224
*534 net225
*535 net226
*536 net227
*537 net228
*538 net229
*539 net23
*540 net230
*541 net231
*542 net232
*543 net233
*544 net234
*545 net235
*546 net236
*547 net237
*548 net238
*549 net239
*550 net24
*551 net240
*552 net241
*553 net242
*554 net243
*555 net244
*556 net245
*557 net246
*558 net247
*559 net248
*560 net249
*561 net25
*562 net250
*563 net251
*564 net252
*565 net253
*566 net254
*567 net255
*568 net256
*569 net257
*570 net258
*571 net259
*572 net26
*573 net260
*574 net261
*575 net262
*576 net263
*577 net264
*578 net265
*579 net266
*580 net267
*581 net268
*582 net269
*583 net27
*584 net270
*585 net271
*586 net272
*587 net273
*588 net274
*589 net275
*590 net276
*591 net277
*592 net28
*593 net29
*594 net3
*595 net30
*596 net31
*597 net32
*598 net33
*599 net34
*600 net35
*601 net36
*602 net37
*603 net38
*604 net39
*605 net4
*606 net40
*607 net41
*608 net42
*609 net43
*610 net44
*611 net45
*612 net46
*613 net47
*614 net48
*615 net49
*616 net5
*617 net50
*618 net51
*619 net52
*620 net53
*621 net54
*622 net55
*623 net56
*624 net57
*625 net58
*626 net59
*627 net6
*628 net60
*629 net61
*630 net62
*631 net63
*632 net64
*633 net65
*634 net66
*635 net67
*636 net68
*637 net69
*638 net7
*639 net70
*640 net71
*641 net72
*642 net73
*643 net74
*644 net75
*645 net76
*646 net77
*647 net78
*648 net79
*649 net8
*650 net80
*651 net81
*652 net82
*653 net83
*654 net84
*655 net85
*656 net86
*657 net87
*658 net88
*659 net89
*660 net9
*661 net90
*662 net91
*663 reg_set_value\[0\]
*664 reg_set_value\[1\]
*665 reg_set_value\[2\]
*666 reg_set_value\[3\]
*667 reg_set_value\[4\]
*668 reg_set_value\[5\]
*669 reg_set_value\[6\]
*670 reg_set_value\[7\]
*671 sent\[0\]
*672 sent\[1\]
*673 ANTENNA_1
*674 ANTENNA_10
*675 ANTENNA_11
*676 ANTENNA_12
*677 ANTENNA_13
*678 ANTENNA_14
*679 ANTENNA_15
*680 ANTENNA_16
*681 ANTENNA_17
*682 ANTENNA_18
*683 ANTENNA_19
*684 ANTENNA_2
*685 ANTENNA_20
*686 ANTENNA_21
*687 ANTENNA_22
*688 ANTENNA_23
*689 ANTENNA_24
*690 ANTENNA_25
*691 ANTENNA_26
*692 ANTENNA_27
*693 ANTENNA_28
*694 ANTENNA_29
*695 ANTENNA_3
*696 ANTENNA_30
*697 ANTENNA_31
*698 ANTENNA_32
*699 ANTENNA_4
*700 ANTENNA_5
*701 ANTENNA_6
*702 ANTENNA_7
*703 ANTENNA_8
*704 ANTENNA_9
*705 ANTENNA__210__A
*706 ANTENNA__213__A
*707 ANTENNA__214__A
*708 ANTENNA__214__B
*709 ANTENNA__216__A
*710 ANTENNA__216__B
*711 ANTENNA__217__A
*712 ANTENNA__217__B
*713 ANTENNA__218__A
*714 ANTENNA__219__C
*715 ANTENNA__220__C
*716 ANTENNA__221__A
*717 ANTENNA__221__B
*718 ANTENNA__221__C
*719 ANTENNA__222__C
*720 ANTENNA__223__B
*721 ANTENNA__224__B
*722 ANTENNA__225__C
*723 ANTENNA__226__C
*724 ANTENNA__227__A
*725 ANTENNA__227__C
*726 ANTENNA__227__D
*727 ANTENNA__228__A
*728 ANTENNA__229__A1
*729 ANTENNA__229__A2
*730 ANTENNA__229__B1
*731 ANTENNA__230__A2
*732 ANTENNA__231__A
*733 ANTENNA__231__B
*734 ANTENNA__231__C
*735 ANTENNA__232__B
*736 ANTENNA__232__D
*737 ANTENNA__233__A1
*738 ANTENNA__233__A4
*739 ANTENNA__233__B1
*740 ANTENNA__234__A
*741 ANTENNA__234__B
*742 ANTENNA__234__C
*743 ANTENNA__234__D
*744 ANTENNA__235__A
*745 ANTENNA__235__B
*746 ANTENNA__236__A
*747 ANTENNA__236__B
*748 ANTENNA__237__A
*749 ANTENNA__238__A
*750 ANTENNA__238__B
*751 ANTENNA__238__C
*752 ANTENNA__238__D
*753 ANTENNA__239__A
*754 ANTENNA__239__C
*755 ANTENNA__239__D
*756 ANTENNA__240__B
*757 ANTENNA__242__A
*758 ANTENNA__243__A2
*759 ANTENNA__243__B1
*760 ANTENNA__244__A1
*761 ANTENNA__244__A2
*762 ANTENNA__245__A2
*763 ANTENNA__245__B1
*764 ANTENNA__246__A1
*765 ANTENNA__246__A2
*766 ANTENNA__246__B1
*767 ANTENNA__247__A2
*768 ANTENNA__247__B1
*769 ANTENNA__248__A2
*770 ANTENNA__248__B1
*771 ANTENNA__249__A2
*772 ANTENNA__249__B1
*773 ANTENNA__250__A2
*774 ANTENNA__250__B1
*775 ANTENNA__251__A2
*776 ANTENNA__251__B1
*777 ANTENNA__252__A2
*778 ANTENNA__252__B1
*779 ANTENNA__253__A2
*780 ANTENNA__253__B1
*781 ANTENNA__254__A2
*782 ANTENNA__254__B1
*783 ANTENNA__255__A2
*784 ANTENNA__255__B1
*785 ANTENNA__256__A2
*786 ANTENNA__256__B1
*787 ANTENNA__257__A2
*788 ANTENNA__257__B1
*789 ANTENNA__258__A2
*790 ANTENNA__258__B1
*791 ANTENNA__259__A2
*792 ANTENNA__259__B1
*793 ANTENNA__260__A2
*794 ANTENNA__260__B1
*795 ANTENNA__261__A2
*796 ANTENNA__261__B1
*797 ANTENNA__262__A2
*798 ANTENNA__262__B1
*799 ANTENNA__263__A2
*800 ANTENNA__263__B1
*801 ANTENNA__264__A2
*802 ANTENNA__264__B1
*803 ANTENNA__265__A2
*804 ANTENNA__265__B1
*805 ANTENNA__266__A2
*806 ANTENNA__266__B1
*807 ANTENNA__267__A2
*808 ANTENNA__267__B1
*809 ANTENNA__268__A2
*810 ANTENNA__268__B1
*811 ANTENNA__269__A2
*812 ANTENNA__269__B1
*813 ANTENNA__270__A2
*814 ANTENNA__270__B1
*815 ANTENNA__271__A2
*816 ANTENNA__271__B1
*817 ANTENNA__272__A2
*818 ANTENNA__272__B1
*819 ANTENNA__273__A2
*820 ANTENNA__273__B1
*821 ANTENNA__274__A2
*822 ANTENNA__274__B1
*823 ANTENNA__275__A
*824 ANTENNA__275__B
*825 ANTENNA__276__A
*826 ANTENNA__276__B
*827 ANTENNA__277__A0
*828 ANTENNA__277__A1
*829 ANTENNA__280__A1
*830 ANTENNA__280__B2
*831 ANTENNA__281__B1
*832 ANTENNA__282__A
*833 ANTENNA__284__B
*834 ANTENNA__287__A2
*835 ANTENNA__287__B1
*836 ANTENNA__288__A
*837 ANTENNA__289__A1
*838 ANTENNA__290__B
*839 ANTENNA__291__A2
*840 ANTENNA__292__C
*841 ANTENNA__293__D
*842 ANTENNA__294__A
*843 ANTENNA__295__A
*844 ANTENNA__297__B
*845 ANTENNA__300__A
*846 ANTENNA__300__B
*847 ANTENNA__301__B1
*848 ANTENNA__302__A
*849 ANTENNA__304__B
*850 ANTENNA__308__A
*851 ANTENNA__309__A1
*852 ANTENNA__309__B1_N
*853 ANTENNA__311__B
*854 ANTENNA__314__A
*855 ANTENNA__314__B
*856 ANTENNA__315__A2
*857 ANTENNA__315__B1
*858 ANTENNA__316__A
*859 ANTENNA__317__A1
*860 ANTENNA__318__B
*861 ANTENNA__319__A2
*862 ANTENNA__320__C
*863 ANTENNA__321__D
*864 ANTENNA__322__A1
*865 ANTENNA__322__B1
*866 ANTENNA__323__A
*867 ANTENNA__325__A
*868 ANTENNA__328__A
*869 ANTENNA__328__B
*870 ANTENNA__328__D
*871 ANTENNA__329__A2
*872 ANTENNA__329__B1
*873 ANTENNA__330__A
*874 ANTENNA__331__A1
*875 ANTENNA__332__B
*876 ANTENNA__332__C
*877 ANTENNA__334__C
*878 ANTENNA__335__D
*879 ANTENNA__336__A
*880 ANTENNA__337__A1
*881 ANTENNA__337__B1_N
*882 ANTENNA__339__B
*883 ANTENNA__342__A
*884 ANTENNA__342__B
*885 ANTENNA__343__B
*886 ANTENNA__343__C
*887 ANTENNA__344__A
*888 ANTENNA__345__A1
*889 ANTENNA__345__B1_N
*890 ANTENNA__347__B
*891 ANTENNA__350__A2
*892 ANTENNA__350__A3
*893 ANTENNA__350__B1
*894 ANTENNA__351__A_N
*895 ANTENNA__352__B
*896 ANTENNA__354__B
*897 ANTENNA__357__C
*898 ANTENNA__358__A
*899 ANTENNA__359__B
*900 ANTENNA__360__A2
*901 ANTENNA__360__B1
*902 ANTENNA__361__A_N
*903 ANTENNA__363__B
*904 ANTENNA__366__A
*905 ANTENNA__367__A2
*906 ANTENNA__367__B1
*907 ANTENNA__368__A_N
*908 ANTENNA__369__B
*909 ANTENNA__371__B
*910 ANTENNA__374__A
*911 ANTENNA__375__A2
*912 ANTENNA__375__B1
*913 ANTENNA__377__A_N
*914 ANTENNA__379__B
*915 ANTENNA__382__A
*916 ANTENNA__383__B1
*917 ANTENNA__385__A1
*918 ANTENNA__386__A2
*919 ANTENNA__387__A1
*920 ANTENNA__388__A
*921 ANTENNA__388__B
*922 ANTENNA__388__C
*923 ANTENNA__389__B
*924 ANTENNA__390__A1
*925 ANTENNA__390__B1
*926 ANTENNA__397__A1
*927 ANTENNA__399__B1
*928 ANTENNA__400__C1
*929 ANTENNA__401__A
*930 ANTENNA__402__A1
*931 ANTENNA__402__C1
*932 ANTENNA__403__A
*933 ANTENNA__404__B2
*934 ANTENNA__405__A
*935 ANTENNA__406__B2
*936 ANTENNA__407__A
*937 ANTENNA__408__B2
*938 ANTENNA__409__A
*939 ANTENNA__411__A
*940 ANTENNA__413__A
*941 ANTENNA__415__A
*942 ANTENNA__417__A
*943 ANTENNA__419__A
*944 ANTENNA__420__CLK
*945 ANTENNA__421__CLK
*946 ANTENNA__422__CLK
*947 ANTENNA__423__CLK
*948 ANTENNA__424__CLK
*949 ANTENNA__425__CLK
*950 ANTENNA__426__CLK
*951 ANTENNA__427__CLK
*952 ANTENNA__428__CLK
*953 ANTENNA__429__CLK
*954 ANTENNA__430__CLK
*955 ANTENNA__431__CLK
*956 ANTENNA__432__CLK
*957 ANTENNA__433__CLK
*958 ANTENNA__434__CLK
*959 ANTENNA__435__CLK
*960 ANTENNA__436__CLK
*961 ANTENNA__437__CLK
*962 ANTENNA__438__CLK
*963 ANTENNA__439__CLK
*964 ANTENNA__440__CLK
*965 ANTENNA__441__CLK
*966 ANTENNA__442__CLK
*967 ANTENNA__443__CLK
*968 ANTENNA__444__CLK
*969 ANTENNA__445__CLK
*970 ANTENNA__446__CLK
*971 ANTENNA__447__CLK
*972 ANTENNA__448__CLK
*973 ANTENNA__449__CLK
*974 ANTENNA__450__CLK
*975 ANTENNA__451__CLK
*976 ANTENNA__452__CLK
*977 ANTENNA__453__CLK
*978 ANTENNA__454__CLK
*979 ANTENNA__455__CLK
*980 ANTENNA__456__CLK
*981 ANTENNA__457__CLK
*982 ANTENNA__458__CLK
*983 ANTENNA__459__CLK
*984 ANTENNA__460__CLK
*985 ANTENNA__461__CLK
*986 ANTENNA__462__CLK
*987 ANTENNA__463__CLK
*988 ANTENNA__464__CLK
*989 ANTENNA__465__CLK
*990 ANTENNA__466__CLK
*991 ANTENNA__467__CLK
*992 ANTENNA__468__CLK
*993 ANTENNA__469__CLK
*994 ANTENNA__470__CLK
*995 ANTENNA__471__CLK
*996 ANTENNA__472__CLK
*997 ANTENNA__473__CLK
*998 ANTENNA__474__CLK
*999 ANTENNA__475__CLK
*1000 ANTENNA__476__CLK
*1001 ANTENNA__477__CLK
*1002 ANTENNA__478__CLK
*1003 ANTENNA__479__CLK
*1004 ANTENNA__480__CLK
*1005 ANTENNA__481__CLK
*1006 ANTENNA__482__CLK
*1007 ANTENNA__483__CLK
*1008 ANTENNA__484__CLK
*1009 ANTENNA__485__CLK
*1010 ANTENNA__486__CLK
*1011 ANTENNA__487__CLK
*1012 ANTENNA__488__CLK
*1013 ANTENNA__489__CLK
*1014 ANTENNA__490__CLK
*1015 ANTENNA__491__CLK
*1016 ANTENNA__492__CLK
*1017 ANTENNA__493__CLK
*1018 ANTENNA__494__CLK
*1019 ANTENNA__495__CLK
*1020 ANTENNA_clkbuf_1_0_0_wb_clk_i_A
*1021 ANTENNA_clkbuf_1_1_0_wb_clk_i_A
*1022 ANTENNA_fanout80_A
*1023 ANTENNA_fanout81_A
*1024 ANTENNA_fanout82_A
*1025 ANTENNA_fanout83_A
*1026 ANTENNA_fanout84_A
*1027 ANTENNA_fanout85_A
*1028 ANTENNA_fanout89_A
*1029 ANTENNA_fanout90_A
*1030 ANTENNA_fanout91_A
*1031 ANTENNA_hold105_A
*1032 ANTENNA_hold107_A
*1033 ANTENNA_hold109_A
*1034 ANTENNA_hold111_A
*1035 ANTENNA_hold113_A
*1036 ANTENNA_hold115_A
*1037 ANTENNA_hold125_A
*1038 ANTENNA_hold128_A
*1039 ANTENNA_hold26_A
*1040 ANTENNA_hold30_A
*1041 ANTENNA_hold34_A
*1042 ANTENNA_hold45_A
*1043 ANTENNA_hold51_A
*1044 ANTENNA_hold52_A
*1045 ANTENNA_hold59_A
*1046 ANTENNA_hold65_A
*1047 ANTENNA_hold71_A
*1048 ANTENNA_hold73_A
*1049 ANTENNA_hold75_A
*1050 ANTENNA_hold87_A
*1051 ANTENNA_hold93_A
*1052 ANTENNA_hold95_A
*1053 ANTENNA_hold97_A
*1054 ANTENNA_hold99_A
*1055 ANTENNA_output46_A
*1056 ANTENNA_output47_A
*1057 ANTENNA_output48_A
*1058 ANTENNA_output53_A
*1059 ANTENNA_output54_A
*1060 ANTENNA_output55_A
*1061 ANTENNA_output59_A
*1062 ANTENNA_output63_A
*1063 ANTENNA_output64_A
*1064 ANTENNA_output65_A
*1065 ANTENNA_output66_A
*1066 ANTENNA_output67_A
*1067 ANTENNA_output68_A
*1068 ANTENNA_output69_A
*1069 ANTENNA_output70_A
*1070 ANTENNA_output71_A
*1071 ANTENNA_output72_A
*1072 ANTENNA_output73_A
*1073 ANTENNA_output74_A
*1074 ANTENNA_wire86_A
*1075 ANTENNA_wire87_A
*1076 FILLER_0_0_1005
*1077 FILLER_0_0_1009
*1078 FILLER_0_0_1021
*1079 FILLER_0_0_1033
*1080 FILLER_0_0_1037
*1081 FILLER_0_0_1051
*1082 FILLER_0_0_1069
*1083 FILLER_0_0_107
*1084 FILLER_0_0_1073
*1085 FILLER_0_0_1077
*1086 FILLER_0_0_1086
*1087 FILLER_0_0_1093
*1088 FILLER_0_0_1105
*1089 FILLER_0_0_111
*1090 FILLER_0_0_1117
*1091 FILLER_0_0_1121
*1092 FILLER_0_0_113
*1093 FILLER_0_0_1133
*1094 FILLER_0_0_1145
*1095 FILLER_0_0_1149
*1096 FILLER_0_0_1161
*1097 FILLER_0_0_1173
*1098 FILLER_0_0_1177
*1099 FILLER_0_0_1195
*1100 FILLER_0_0_1199
*1101 FILLER_0_0_1203
*1102 FILLER_0_0_1205
*1103 FILLER_0_0_1212
*1104 FILLER_0_0_1216
*1105 FILLER_0_0_1228
*1106 FILLER_0_0_1233
*1107 FILLER_0_0_1239
*1108 FILLER_0_0_125
*1109 FILLER_0_0_1251
*1110 FILLER_0_0_1259
*1111 FILLER_0_0_1269
*1112 FILLER_0_0_1281
*1113 FILLER_0_0_1287
*1114 FILLER_0_0_1289
*1115 FILLER_0_0_1297
*1116 FILLER_0_0_1309
*1117 FILLER_0_0_1315
*1118 FILLER_0_0_1317
*1119 FILLER_0_0_1329
*1120 FILLER_0_0_1341
*1121 FILLER_0_0_1345
*1122 FILLER_0_0_1368
*1123 FILLER_0_0_137
*1124 FILLER_0_0_1373
*1125 FILLER_0_0_1392
*1126 FILLER_0_0_1406
*1127 FILLER_0_0_141
*1128 FILLER_0_0_1423
*1129 FILLER_0_0_1441
*1130 FILLER_0_0_1455
*1131 FILLER_0_0_149
*1132 FILLER_0_0_1492
*1133 FILLER_0_0_1496
*1134 FILLER_0_0_15
*1135 FILLER_0_0_1513
*1136 FILLER_0_0_1522
*1137 FILLER_0_0_1526
*1138 FILLER_0_0_1530
*1139 FILLER_0_0_1534
*1140 FILLER_0_0_1538
*1141 FILLER_0_0_1555
*1142 FILLER_0_0_1559
*1143 FILLER_0_0_1569
*1144 FILLER_0_0_1573
*1145 FILLER_0_0_1594
*1146 FILLER_0_0_1677
*1147 FILLER_0_0_1681
*1148 FILLER_0_0_169
*1149 FILLER_0_0_1700
*1150 FILLER_0_0_1720
*1151 FILLER_0_0_1724
*1152 FILLER_0_0_173
*1153 FILLER_0_0_1734
*1154 FILLER_0_0_1754
*1155 FILLER_0_0_1758
*1156 FILLER_0_0_1765
*1157 FILLER_0_0_1769
*1158 FILLER_0_0_1791
*1159 FILLER_0_0_1798
*1160 FILLER_0_0_1802
*1161 FILLER_0_0_1809
*1162 FILLER_0_0_1813
*1163 FILLER_0_0_1817
*1164 FILLER_0_0_1821
*1165 FILLER_0_0_1829
*1166 FILLER_0_0_1837
*1167 FILLER_0_0_1849
*1168 FILLER_0_0_185
*1169 FILLER_0_0_1866
*1170 FILLER_0_0_1874
*1171 FILLER_0_0_1885
*1172 FILLER_0_0_1897
*1173 FILLER_0_0_1903
*1174 FILLER_0_0_1905
*1175 FILLER_0_0_1913
*1176 FILLER_0_0_193
*1177 FILLER_0_0_1933
*1178 FILLER_0_0_1945
*1179 FILLER_0_0_1957
*1180 FILLER_0_0_1961
*1181 FILLER_0_0_197
*1182 FILLER_0_0_1973
*1183 FILLER_0_0_1980
*1184 FILLER_0_0_1989
*1185 FILLER_0_0_2001
*1186 FILLER_0_0_2013
*1187 FILLER_0_0_2017
*1188 FILLER_0_0_2029
*1189 FILLER_0_0_2041
*1190 FILLER_0_0_2045
*1191 FILLER_0_0_2057
*1192 FILLER_0_0_2069
*1193 FILLER_0_0_2073
*1194 FILLER_0_0_2085
*1195 FILLER_0_0_209
*1196 FILLER_0_0_2097
*1197 FILLER_0_0_2101
*1198 FILLER_0_0_2107
*1199 FILLER_0_0_2129
*1200 FILLER_0_0_2141
*1201 FILLER_0_0_2155
*1202 FILLER_0_0_216
*1203 FILLER_0_0_2165
*1204 FILLER_0_0_2177
*1205 FILLER_0_0_2183
*1206 FILLER_0_0_2185
*1207 FILLER_0_0_2197
*1208 FILLER_0_0_2209
*1209 FILLER_0_0_2213
*1210 FILLER_0_0_2221
*1211 FILLER_0_0_2224
*1212 FILLER_0_0_2228
*1213 FILLER_0_0_2234
*1214 FILLER_0_0_2238
*1215 FILLER_0_0_2241
*1216 FILLER_0_0_2245
*1217 FILLER_0_0_225
*1218 FILLER_0_0_2257
*1219 FILLER_0_0_2265
*1220 FILLER_0_0_2285
*1221 FILLER_0_0_2293
*1222 FILLER_0_0_2297
*1223 FILLER_0_0_2305
*1224 FILLER_0_0_2336
*1225 FILLER_0_0_2344
*1226 FILLER_0_0_2348
*1227 FILLER_0_0_2353
*1228 FILLER_0_0_2363
*1229 FILLER_0_0_2367
*1230 FILLER_0_0_237
*1231 FILLER_0_0_2376
*1232 FILLER_0_0_2381
*1233 FILLER_0_0_2385
*1234 FILLER_0_0_2391
*1235 FILLER_0_0_2399
*1236 FILLER_0_0_2404
*1237 FILLER_0_0_2412
*1238 FILLER_0_0_2431
*1239 FILLER_0_0_2453
*1240 FILLER_0_0_2463
*1241 FILLER_0_0_2465
*1242 FILLER_0_0_2477
*1243 FILLER_0_0_2489
*1244 FILLER_0_0_249
*1245 FILLER_0_0_2503
*1246 FILLER_0_0_2515
*1247 FILLER_0_0_2519
*1248 FILLER_0_0_2521
*1249 FILLER_0_0_253
*1250 FILLER_0_0_2533
*1251 FILLER_0_0_2545
*1252 FILLER_0_0_2549
*1253 FILLER_0_0_2561
*1254 FILLER_0_0_2573
*1255 FILLER_0_0_2577
*1256 FILLER_0_0_2589
*1257 FILLER_0_0_2601
*1258 FILLER_0_0_2621
*1259 FILLER_0_0_2629
*1260 FILLER_0_0_2633
*1261 FILLER_0_0_2645
*1262 FILLER_0_0_265
*1263 FILLER_0_0_2657
*1264 FILLER_0_0_2664
*1265 FILLER_0_0_2676
*1266 FILLER_0_0_2689
*1267 FILLER_0_0_27
*1268 FILLER_0_0_2701
*1269 FILLER_0_0_2713
*1270 FILLER_0_0_2717
*1271 FILLER_0_0_2729
*1272 FILLER_0_0_273
*1273 FILLER_0_0_2741
*1274 FILLER_0_0_2762
*1275 FILLER_0_0_2773
*1276 FILLER_0_0_279
*1277 FILLER_0_0_2796
*1278 FILLER_0_0_2801
*1279 FILLER_0_0_281
*1280 FILLER_0_0_2821
*1281 FILLER_0_0_2825
*1282 FILLER_0_0_2829
*1283 FILLER_0_0_2855
*1284 FILLER_0_0_2860
*1285 FILLER_0_0_2878
*1286 FILLER_0_0_2882
*1287 FILLER_0_0_2885
*1288 FILLER_0_0_2897
*1289 FILLER_0_0_29
*1290 FILLER_0_0_2909
*1291 FILLER_0_0_2913
*1292 FILLER_0_0_2925
*1293 FILLER_0_0_293
*1294 FILLER_0_0_2937
*1295 FILLER_0_0_2941
*1296 FILLER_0_0_2945
*1297 FILLER_0_0_2962
*1298 FILLER_0_0_2969
*1299 FILLER_0_0_2981
*1300 FILLER_0_0_2993
*1301 FILLER_0_0_2997
*1302 FILLER_0_0_3
*1303 FILLER_0_0_3006
*1304 FILLER_0_0_3018
*1305 FILLER_0_0_3025
*1306 FILLER_0_0_3037
*1307 FILLER_0_0_3049
*1308 FILLER_0_0_305
*1309 FILLER_0_0_3053
*1310 FILLER_0_0_3065
*1311 FILLER_0_0_3077
*1312 FILLER_0_0_3081
*1313 FILLER_0_0_309
*1314 FILLER_0_0_3093
*1315 FILLER_0_0_3105
*1316 FILLER_0_0_3109
*1317 FILLER_0_0_3133
*1318 FILLER_0_0_3137
*1319 FILLER_0_0_3149
*1320 FILLER_0_0_3161
*1321 FILLER_0_0_3165
*1322 FILLER_0_0_3173
*1323 FILLER_0_0_3184
*1324 FILLER_0_0_3193
*1325 FILLER_0_0_3205
*1326 FILLER_0_0_321
*1327 FILLER_0_0_3217
*1328 FILLER_0_0_3221
*1329 FILLER_0_0_3233
*1330 FILLER_0_0_3245
*1331 FILLER_0_0_3249
*1332 FILLER_0_0_3261
*1333 FILLER_0_0_3273
*1334 FILLER_0_0_3277
*1335 FILLER_0_0_3285
*1336 FILLER_0_0_330
*1337 FILLER_0_0_3305
*1338 FILLER_0_0_3317
*1339 FILLER_0_0_3329
*1340 FILLER_0_0_3333
*1341 FILLER_0_0_3348
*1342 FILLER_0_0_3361
*1343 FILLER_0_0_337
*1344 FILLER_0_0_3373
*1345 FILLER_0_0_3385
*1346 FILLER_0_0_3389
*1347 FILLER_0_0_3401
*1348 FILLER_0_0_3413
*1349 FILLER_0_0_3417
*1350 FILLER_0_0_3429
*1351 FILLER_0_0_3441
*1352 FILLER_0_0_3445
*1353 FILLER_0_0_3453
*1354 FILLER_0_0_3473
*1355 FILLER_0_0_3477
*1356 FILLER_0_0_3489
*1357 FILLER_0_0_349
*1358 FILLER_0_0_3493
*1359 FILLER_0_0_3496
*1360 FILLER_0_0_3506
*1361 FILLER_0_0_3532
*1362 FILLER_0_0_3536
*1363 FILLER_0_0_3548
*1364 FILLER_0_0_3557
*1365 FILLER_0_0_3569
*1366 FILLER_0_0_3581
*1367 FILLER_0_0_3585
*1368 FILLER_0_0_3597
*1369 FILLER_0_0_3609
*1370 FILLER_0_0_361
*1371 FILLER_0_0_3613
*1372 FILLER_0_0_3621
*1373 FILLER_0_0_3641
*1374 FILLER_0_0_365
*1375 FILLER_0_0_3653
*1376 FILLER_0_0_3665
*1377 FILLER_0_0_3692
*1378 FILLER_0_0_3697
*1379 FILLER_0_0_3714
*1380 FILLER_0_0_3748
*1381 FILLER_0_0_3753
*1382 FILLER_0_0_3757
*1383 FILLER_0_0_3761
*1384 FILLER_0_0_377
*1385 FILLER_0_0_3781
*1386 FILLER_0_0_3825
*1387 FILLER_0_0_3833
*1388 FILLER_0_0_3837
*1389 FILLER_0_0_3849
*1390 FILLER_0_0_385
*1391 FILLER_0_0_3861
*1392 FILLER_0_0_3875
*1393 FILLER_0_0_3887
*1394 FILLER_0_0_3891
*1395 FILLER_0_0_3893
*1396 FILLER_0_0_3905
*1397 FILLER_0_0_391
*1398 FILLER_0_0_3917
*1399 FILLER_0_0_3921
*1400 FILLER_0_0_393
*1401 FILLER_0_0_3933
*1402 FILLER_0_0_3945
*1403 FILLER_0_0_3949
*1404 FILLER_0_0_3961
*1405 FILLER_0_0_3973
*1406 FILLER_0_0_3993
*1407 FILLER_0_0_4001
*1408 FILLER_0_0_4005
*1409 FILLER_0_0_4017
*1410 FILLER_0_0_4033
*1411 FILLER_0_0_4045
*1412 FILLER_0_0_405
*1413 FILLER_0_0_4057
*1414 FILLER_0_0_4061
*1415 FILLER_0_0_4073
*1416 FILLER_0_0_4085
*1417 FILLER_0_0_4089
*1418 FILLER_0_0_41
*1419 FILLER_0_0_4101
*1420 FILLER_0_0_4113
*1421 FILLER_0_0_4117
*1422 FILLER_0_0_4129
*1423 FILLER_0_0_4141
*1424 FILLER_0_0_4168
*1425 FILLER_0_0_417
*1426 FILLER_0_0_4173
*1427 FILLER_0_0_4190
*1428 FILLER_0_0_4204
*1429 FILLER_0_0_421
*1430 FILLER_0_0_4224
*1431 FILLER_0_0_4229
*1432 FILLER_0_0_4233
*1433 FILLER_0_0_4237
*1434 FILLER_0_0_4257
*1435 FILLER_0_0_4266
*1436 FILLER_0_0_4270
*1437 FILLER_0_0_4274
*1438 FILLER_0_0_4282
*1439 FILLER_0_0_4285
*1440 FILLER_0_0_4304
*1441 FILLER_0_0_4308
*1442 FILLER_0_0_4313
*1443 FILLER_0_0_433
*1444 FILLER_0_0_4336
*1445 FILLER_0_0_4348
*1446 FILLER_0_0_4352
*1447 FILLER_0_0_4356
*1448 FILLER_0_0_4360
*1449 FILLER_0_0_4364
*1450 FILLER_0_0_4369
*1451 FILLER_0_0_437
*1452 FILLER_0_0_4374
*1453 FILLER_0_0_4378
*1454 FILLER_0_0_4392
*1455 FILLER_0_0_4397
*1456 FILLER_0_0_4401
*1457 FILLER_0_0_4405
*1458 FILLER_0_0_4409
*1459 FILLER_0_0_4413
*1460 FILLER_0_0_4417
*1461 FILLER_0_0_4421
*1462 FILLER_0_0_4425
*1463 FILLER_0_0_4451
*1464 FILLER_0_0_4453
*1465 FILLER_0_0_4457
*1466 FILLER_0_0_446
*1467 FILLER_0_0_4461
*1468 FILLER_0_0_4465
*1469 FILLER_0_0_4477
*1470 FILLER_0_0_4481
*1471 FILLER_0_0_449
*1472 FILLER_0_0_4501
*1473 FILLER_0_0_4507
*1474 FILLER_0_0_4509
*1475 FILLER_0_0_4521
*1476 FILLER_0_0_4533
*1477 FILLER_0_0_4537
*1478 FILLER_0_0_4541
*1479 FILLER_0_0_4552
*1480 FILLER_0_0_4565
*1481 FILLER_0_0_4577
*1482 FILLER_0_0_4589
*1483 FILLER_0_0_4593
*1484 FILLER_0_0_4605
*1485 FILLER_0_0_461
*1486 FILLER_0_0_4617
*1487 FILLER_0_0_4621
*1488 FILLER_0_0_4633
*1489 FILLER_0_0_4645
*1490 FILLER_0_0_4649
*1491 FILLER_0_0_4653
*1492 FILLER_0_0_4672
*1493 FILLER_0_0_4677
*1494 FILLER_0_0_4689
*1495 FILLER_0_0_4701
*1496 FILLER_0_0_4705
*1497 FILLER_0_0_4716
*1498 FILLER_0_0_4728
*1499 FILLER_0_0_473
*1500 FILLER_0_0_4733
*1501 FILLER_0_0_4745
*1502 FILLER_0_0_4757
*1503 FILLER_0_0_4761
*1504 FILLER_0_0_477
*1505 FILLER_0_0_4773
*1506 FILLER_0_0_4785
*1507 FILLER_0_0_4789
*1508 FILLER_0_0_4801
*1509 FILLER_0_0_4813
*1510 FILLER_0_0_4817
*1511 FILLER_0_0_4843
*1512 FILLER_0_0_4845
*1513 FILLER_0_0_485
*1514 FILLER_0_0_4857
*1515 FILLER_0_0_4869
*1516 FILLER_0_0_4873
*1517 FILLER_0_0_4879
*1518 FILLER_0_0_4892
*1519 FILLER_0_0_4896
*1520 FILLER_0_0_4901
*1521 FILLER_0_0_4913
*1522 FILLER_0_0_4925
*1523 FILLER_0_0_4929
*1524 FILLER_0_0_4941
*1525 FILLER_0_0_4953
*1526 FILLER_0_0_4957
*1527 FILLER_0_0_4969
*1528 FILLER_0_0_4981
*1529 FILLER_0_0_4985
*1530 FILLER_0_0_4993
*1531 FILLER_0_0_5013
*1532 FILLER_0_0_5025
*1533 FILLER_0_0_5037
*1534 FILLER_0_0_5041
*1535 FILLER_0_0_505
*1536 FILLER_0_0_5053
*1537 FILLER_0_0_5058
*1538 FILLER_0_0_5066
*1539 FILLER_0_0_5069
*1540 FILLER_0_0_5081
*1541 FILLER_0_0_509
*1542 FILLER_0_0_5093
*1543 FILLER_0_0_5097
*1544 FILLER_0_0_5109
*1545 FILLER_0_0_5121
*1546 FILLER_0_0_5125
*1547 FILLER_0_0_5137
*1548 FILLER_0_0_5149
*1549 FILLER_0_0_5153
*1550 FILLER_0_0_5161
*1551 FILLER_0_0_5181
*1552 FILLER_0_0_5193
*1553 FILLER_0_0_5205
*1554 FILLER_0_0_5209
*1555 FILLER_0_0_521
*1556 FILLER_0_0_5221
*1557 FILLER_0_0_5225
*1558 FILLER_0_0_5237
*1559 FILLER_0_0_5249
*1560 FILLER_0_0_5261
*1561 FILLER_0_0_5265
*1562 FILLER_0_0_5277
*1563 FILLER_0_0_5289
*1564 FILLER_0_0_529
*1565 FILLER_0_0_5293
*1566 FILLER_0_0_53
*1567 FILLER_0_0_5305
*1568 FILLER_0_0_5317
*1569 FILLER_0_0_5321
*1570 FILLER_0_0_533
*1571 FILLER_0_0_5333
*1572 FILLER_0_0_5345
*1573 FILLER_0_0_5365
*1574 FILLER_0_0_5373
*1575 FILLER_0_0_5377
*1576 FILLER_0_0_5389
*1577 FILLER_0_0_5400
*1578 FILLER_0_0_5405
*1579 FILLER_0_0_5417
*1580 FILLER_0_0_5429
*1581 FILLER_0_0_5433
*1582 FILLER_0_0_5445
*1583 FILLER_0_0_545
*1584 FILLER_0_0_5457
*1585 FILLER_0_0_5461
*1586 FILLER_0_0_5473
*1587 FILLER_0_0_5485
*1588 FILLER_0_0_5489
*1589 FILLER_0_0_5501
*1590 FILLER_0_0_5513
*1591 FILLER_0_0_5533
*1592 FILLER_0_0_5541
*1593 FILLER_0_0_5545
*1594 FILLER_0_0_5557
*1595 FILLER_0_0_5565
*1596 FILLER_0_0_557
*1597 FILLER_0_0_5571
*1598 FILLER_0_0_5585
*1599 FILLER_0_0_5589
*1600 FILLER_0_0_5597
*1601 FILLER_0_0_5601
*1602 FILLER_0_0_561
*1603 FILLER_0_0_5613
*1604 FILLER_0_0_5625
*1605 FILLER_0_0_5629
*1606 FILLER_0_0_5641
*1607 FILLER_0_0_5653
*1608 FILLER_0_0_5657
*1609 FILLER_0_0_5669
*1610 FILLER_0_0_5681
*1611 FILLER_0_0_57
*1612 FILLER_0_0_5701
*1613 FILLER_0_0_5709
*1614 FILLER_0_0_5713
*1615 FILLER_0_0_5725
*1616 FILLER_0_0_573
*1617 FILLER_0_0_5737
*1618 FILLER_0_0_5744
*1619 FILLER_0_0_5756
*1620 FILLER_0_0_5769
*1621 FILLER_0_0_5781
*1622 FILLER_0_0_5793
*1623 FILLER_0_0_5797
*1624 FILLER_0_0_5809
*1625 FILLER_0_0_5821
*1626 FILLER_0_0_5825