*SPEF "ieee 1481-1999"
*DESIGN "wb_buttons_leds"
*DATE "11:11:11 Fri 11 11, 1111"
*VENDOR "OpenRCX"
*PROGRAM "Parallel Extraction"
*VERSION "1.0"
*DESIGN_FLOW "NAME_SCOPE LOCAL" "PIN_CAP NONE"
*DIVIDER /
*DELIMITER :
*BUS_DELIMITER []
*T_UNIT 1 NS
*C_UNIT 1 PF
*R_UNIT 1 OHM
*L_UNIT 1 HENRY

*NAME_MAP
*1 buttons[0]
*2 buttons[1]
*3 buttons[2]
*4 net77
*5 net78
*6 net79
*7 net80
*8 net81
*9 net82
*10 net83
*11 net84
*12 leds[0]
*13 leds[1]
*14 leds[2]
*15 leds[3]
*16 leds[4]
*17 leds[5]
*18 leds[6]
*19 leds[7]
*22 wb_clk_i
*23 wb_rst_i
*24 wbs_ack_o
*25 wbs_adr_i[0]
*26 wbs_adr_i[10]
*27 wbs_adr_i[11]
*28 wbs_adr_i[12]
*29 wbs_adr_i[13]
*30 wbs_adr_i[14]
*31 wbs_adr_i[15]
*32 wbs_adr_i[16]
*33 wbs_adr_i[17]
*34 wbs_adr_i[18]
*35 wbs_adr_i[19]
*36 wbs_adr_i[1]
*37 wbs_adr_i[20]
*38 wbs_adr_i[21]
*39 wbs_adr_i[22]
*40 wbs_adr_i[23]
*41 wbs_adr_i[24]
*42 wbs_adr_i[25]
*43 wbs_adr_i[26]
*44 wbs_adr_i[27]
*45 wbs_adr_i[28]
*46 wbs_adr_i[29]
*47 wbs_adr_i[2]
*48 wbs_adr_i[30]
*49 wbs_adr_i[31]
*50 wbs_adr_i[3]
*51 wbs_adr_i[4]
*52 wbs_adr_i[5]
*53 wbs_adr_i[6]
*54 wbs_adr_i[7]
*55 wbs_adr_i[8]
*56 wbs_adr_i[9]
*57 wbs_cyc_i
*58 wbs_dat_i[0]
*59 wbs_dat_i[10]
*60 wbs_dat_i[11]
*61 wbs_dat_i[12]
*62 wbs_dat_i[13]
*63 wbs_dat_i[14]
*64 wbs_dat_i[15]
*65 wbs_dat_i[16]
*66 wbs_dat_i[17]
*67 wbs_dat_i[18]
*68 wbs_dat_i[19]
*69 wbs_dat_i[1]
*70 wbs_dat_i[20]
*71 wbs_dat_i[21]
*72 wbs_dat_i[22]
*73 wbs_dat_i[23]
*74 wbs_dat_i[24]
*75 wbs_dat_i[25]
*76 wbs_dat_i[26]
*77 wbs_dat_i[27]
*78 wbs_dat_i[28]
*79 wbs_dat_i[29]
*80 wbs_dat_i[2]
*81 wbs_dat_i[30]
*82 wbs_dat_i[31]
*83 wbs_dat_i[3]
*84 wbs_dat_i[4]
*85 wbs_dat_i[5]
*86 wbs_dat_i[6]
*87 wbs_dat_i[7]
*88 wbs_dat_i[8]
*89 wbs_dat_i[9]
*90 wbs_dat_o[0]
*91 net87
*92 net88
*93 net89
*94 net90
*95 net91
*96 net92
*97 net93
*98 net94
*99 net95
*100 net96
*101 wbs_dat_o[1]
*102 net97
*103 net98
*104 net99
*105 net100
*106 net101
*107 net102
*108 net103
*109 net104
*110 net105
*111 net106
*112 wbs_dat_o[2]
*113 net107
*114 net108
*115 wbs_dat_o[3]
*116 wbs_dat_o[4]
*117 wbs_dat_o[5]
*118 wbs_dat_o[6]
*119 wbs_dat_o[7]
*120 net85
*121 net86
*122 wbs_stb_i
*123 wbs_we_i
*124 _000_
*125 _001_
*126 _002_
*127 _003_
*128 _004_
*129 _005_
*130 _006_
*131 _007_
*132 _008_
*133 _009_
*134 _010_
*135 _011_
*136 _012_
*137 _013_
*138 _014_
*139 _015_
*140 _016_
*141 _017_
*142 _018_
*143 _019_
*144 _020_
*145 _021_
*146 _022_
*147 _023_
*148 _024_
*149 _025_
*150 _026_
*151 _027_
*152 _028_
*153 _029_
*154 _030_
*155 _031_
*156 _032_
*157 _033_
*158 _034_
*159 _035_
*160 _036_
*161 _037_
*162 _038_
*163 _039_
*164 _040_
*165 _041_
*166 _042_
*167 _043_
*168 _044_
*169 _045_
*170 _046_
*171 _047_
*172 _048_
*173 _049_
*174 _050_
*175 _051_
*176 _052_
*177 _053_
*178 _054_
*179 _055_
*180 _056_
*181 _057_
*182 clknet_0_wb_clk_i
*183 clknet_1_0__leaf_wb_clk_i
*184 clknet_1_1__leaf_wb_clk_i
*185 net1
*186 net10
*187 net109
*188 net11
*189 net110
*190 net111
*191 net112
*192 net113
*193 net114
*194 net115
*195 net116
*196 net117
*197 net118
*198 net119
*199 net12
*200 net120
*201 net121
*202 net122
*203 net123
*204 net124
*205 net125
*206 net126
*207 net127
*208 net128
*209 net129
*210 net13
*211 net130
*212 net131
*213 net132
*214 net133
*215 net134
*216 net135
*217 net136
*218 net137
*219 net138
*220 net139
*221 net14
*222 net140
*223 net141
*224 net142
*225 net143
*226 net144
*227 net145
*228 net146
*229 net147
*230 net148
*231 net149
*232 net15
*233 net150
*234 net151
*235 net152
*236 net153
*237 net154
*238 net155
*239 net156
*240 net157
*241 net158
*242 net159
*243 net16
*244 net160
*245 net161
*246 net162
*247 net163
*248 net164
*249 net165
*250 net166
*251 net167
*252 net168
*253 net169
*254 net17
*255 net170
*256 net171
*257 net172
*258 net18
*259 net19
*260 net2
*261 net20
*262 net21
*263 net22
*264 net23
*265 net24
*266 net25
*267 net26
*268 net27
*269 net28
*270 net29
*271 net3
*272 net30
*273 net31
*274 net32
*275 net33
*276 net34
*277 net35
*278 net36
*279 net37
*280 net38
*281 net39
*282 net4
*283 net40
*284 net41
*285 net42
*286 net43
*287 net44
*288 net45
*289 net46
*290 net47
*291 net48
*292 net49
*293 net5
*294 net50
*295 net51
*296 net52
*297 net53
*298 net54
*299 net55
*300 net56
*301 net57
*302 net58
*303 net59
*304 net6
*305 net60
*306 net61
*307 net62
*308 net63
*309 net64
*310 net65
*311 net66
*312 net67
*313 net68
*314 net69
*315 net7
*316 net70
*317 net71
*318 net72
*319 net73
*320 net74
*321 net75
*322 net76
*323 net8
*324 net9
*325 ANTENNA_1
*326 ANTENNA__058__A
*327 ANTENNA__059__A
*328 ANTENNA__060__A
*329 ANTENNA__061__A
*330 ANTENNA__062__A
*331 ANTENNA__063__A
*332 ANTENNA__064__A
*333 ANTENNA__065__C
*334 ANTENNA__066__C
*335 ANTENNA__067__C
*336 ANTENNA__068__A
*337 ANTENNA__068__B
*338 ANTENNA__069__A
*339 ANTENNA__069__B
*340 ANTENNA__070__C
*341 ANTENNA__071__B
*342 ANTENNA__072__C
*343 ANTENNA__073__A
*344 ANTENNA__074__B
*345 ANTENNA__074__C
*346 ANTENNA__074__D
*347 ANTENNA__075__B
*348 ANTENNA__075__C
*349 ANTENNA__075__D
*350 ANTENNA__076__D
*351 ANTENNA__077__A
*352 ANTENNA__077__B
*353 ANTENNA__078__A
*354 ANTENNA__079__A
*355 ANTENNA__080__A
*356 ANTENNA__080__B
*357 ANTENNA__081__A3
*358 ANTENNA__081__A4
*359 ANTENNA__082__A
*360 ANTENNA__082__B
*361 ANTENNA__082__D
*362 ANTENNA__083__B2
*363 ANTENNA__084__D
*364 ANTENNA__085__A3
*365 ANTENNA__085__A4
*366 ANTENNA__086__B1
*367 ANTENNA__087__D
*368 ANTENNA__088__A3
*369 ANTENNA__088__A4
*370 ANTENNA__091__A2
*371 ANTENNA__091__B2
*372 ANTENNA__092__A2
*373 ANTENNA__092__B2
*374 ANTENNA__093__A2
*375 ANTENNA__093__B2
*376 ANTENNA__094__A1
*377 ANTENNA__094__A2
*378 ANTENNA__094__B2
*379 ANTENNA__095__A2
*380 ANTENNA__095__B2
*381 ANTENNA__096__A
*382 ANTENNA__096__B
*383 ANTENNA__097__A2
*384 ANTENNA__097__C1
*385 ANTENNA__098__A
*386 ANTENNA__098__B
*387 ANTENNA__098__C
*388 ANTENNA__100__B1
*389 ANTENNA__101__A1
*390 ANTENNA__101__C1
*391 ANTENNA__102__B1
*392 ANTENNA__103__C1
*393 ANTENNA__104__B1
*394 ANTENNA__105__C1
*395 ANTENNA__106__B1
*396 ANTENNA__107__C1
*397 ANTENNA__108__B1
*398 ANTENNA__109__C1
*399 ANTENNA__110__A1
*400 ANTENNA__110__B1
*401 ANTENNA__111__C1
*402 ANTENNA__112__B1
*403 ANTENNA__113__C1
*404 ANTENNA__114__A1
*405 ANTENNA__114__B1
*406 ANTENNA__115__A1
*407 ANTENNA__115__C1
*408 ANTENNA_hold26_A
*409 ANTENNA_hold31_A
*410 ANTENNA_hold38_A
*411 ANTENNA_hold48_A
*412 ANTENNA_hold53_A
*413 ANTENNA_output48_A
*414 ANTENNA_output49_A
*415 ANTENNA_output50_A
*416 ANTENNA_output51_A
*417 ANTENNA_output52_A
*418 ANTENNA_output53_A
*419 ANTENNA_output54_A
*420 ANTENNA_output55_A
*421 ANTENNA_output56_A
*422 ANTENNA_output57_A
*423 ANTENNA_output58_A
*424 ANTENNA_output63_A
*425 ANTENNA_output64_A
*426 ANTENNA_wire66_A
*427 ANTENNA_wire67_A
*428 ANTENNA_wire68_A
*429 ANTENNA_wire69_A
*430 ANTENNA_wire70_A
*431 ANTENNA_wire72_A
*432 ANTENNA_wire73_A
*433 ANTENNA_wire74_A
*434 ANTENNA_wire75_A
*435 ANTENNA_wire76_A
*436 FILLER_0_0_1017
*437 FILLER_0_0_1021
*438 FILLER_0_0_1025
*439 FILLER_0_0_1062
*440 FILLER_0_0_1087
*441 FILLER_0_0_109
*442 FILLER_0_0_1093
*443 FILLER_0_0_1103
*444 FILLER_0_0_1107
*445 FILLER_0_0_1111
*446 FILLER_0_0_1117
*447 FILLER_0_0_1121
*448 FILLER_0_0_1130
*449 FILLER_0_0_1149
*450 FILLER_0_0_1153
*451 FILLER_0_0_119
*452 FILLER_0_0_1193
*453 FILLER_0_0_1202
*454 FILLER_0_0_1208
*455 FILLER_0_0_1240
*456 FILLER_0_0_1258
*457 FILLER_0_0_1261
*458 FILLER_0_0_1265
*459 FILLER_0_0_1277
*460 FILLER_0_0_1289
*461 FILLER_0_0_131
*462 FILLER_0_0_1310
*463 FILLER_0_0_1317
*464 FILLER_0_0_1329
*465 FILLER_0_0_1341
*466 FILLER_0_0_1345
*467 FILLER_0_0_1362
*468 FILLER_0_0_1370
*469 FILLER_0_0_1373
*470 FILLER_0_0_1385
*471 FILLER_0_0_139
*472 FILLER_0_0_1397
*473 FILLER_0_0_1401
*474 FILLER_0_0_141
*475 FILLER_0_0_1425
*476 FILLER_0_0_1429
*477 FILLER_0_0_1441
*478 FILLER_0_0_1453
*479 FILLER_0_0_1457
*480 FILLER_0_0_1465
*481 FILLER_0_0_1471
*482 FILLER_0_0_1483
*483 FILLER_0_0_1485
*484 FILLER_0_0_1497
*485 FILLER_0_0_15
*486 FILLER_0_0_1509
*487 FILLER_0_0_1513
*488 FILLER_0_0_1525
*489 FILLER_0_0_153
*490 FILLER_0_0_1533
*491 FILLER_0_0_1537
*492 FILLER_0_0_1541
*493 FILLER_0_0_1553
*494 FILLER_0_0_1565
*495 FILLER_0_0_1569
*496 FILLER_0_0_1581
*497 FILLER_0_0_1593
*498 FILLER_0_0_1597
*499 FILLER_0_0_1609
*500 FILLER_0_0_1621
*501 FILLER_0_0_1625
*502 FILLER_0_0_1637
*503 FILLER_0_0_1649
*504 FILLER_0_0_165
*505 FILLER_0_0_1663
*506 FILLER_0_0_1675
*507 FILLER_0_0_1679
*508 FILLER_0_0_1681
*509 FILLER_0_0_169
*510 FILLER_0_0_1693
*511 FILLER_0_0_1701
*512 FILLER_0_0_1717
*513 FILLER_0_0_1729
*514 FILLER_0_0_1735
*515 FILLER_0_0_1737
*516 FILLER_0_0_1749
*517 FILLER_0_0_1761
*518 FILLER_0_0_1781
*519 FILLER_0_0_1789
*520 FILLER_0_0_1793
*521 FILLER_0_0_1805
*522 FILLER_0_0_1817
*523 FILLER_0_0_1821
*524 FILLER_0_0_1825
*525 FILLER_0_0_1837
*526 FILLER_0_0_1845
*527 FILLER_0_0_1849
*528 FILLER_0_0_186
*529 FILLER_0_0_1861
*530 FILLER_0_0_1873
*531 FILLER_0_0_1877
*532 FILLER_0_0_1889
*533 FILLER_0_0_190
*534 FILLER_0_0_1901
*535 FILLER_0_0_1905
*536 FILLER_0_0_1917
*537 FILLER_0_0_1929
*538 FILLER_0_0_1933
*539 FILLER_0_0_1939
*540 FILLER_0_0_1943
*541 FILLER_0_0_1955
*542 FILLER_0_0_1959
*543 FILLER_0_0_1961
*544 FILLER_0_0_197
*545 FILLER_0_0_1973
*546 FILLER_0_0_1985
*547 FILLER_0_0_1989
*548 FILLER_0_0_2015
*549 FILLER_0_0_2017
*550 FILLER_0_0_2029
*551 FILLER_0_0_2041
*552 FILLER_0_0_2045
*553 FILLER_0_0_2057
*554 FILLER_0_0_2069
*555 FILLER_0_0_2073
*556 FILLER_0_0_2085
*557 FILLER_0_0_209
*558 FILLER_0_0_2097
*559 FILLER_0_0_2101
*560 FILLER_0_0_2113
*561 FILLER_0_0_2120
*562 FILLER_0_0_2129
*563 FILLER_0_0_2141
*564 FILLER_0_0_2153
*565 FILLER_0_0_2157
*566 FILLER_0_0_2169
*567 FILLER_0_0_2175
*568 FILLER_0_0_2179
*569 FILLER_0_0_2183
*570 FILLER_0_0_2185
*571 FILLER_0_0_2197
*572 FILLER_0_0_2209
*573 FILLER_0_0_221
*574 FILLER_0_0_2213
*575 FILLER_0_0_2225
*576 FILLER_0_0_2237
*577 FILLER_0_0_2241
*578 FILLER_0_0_225
*579 FILLER_0_0_2253
*580 FILLER_0_0_2265
*581 FILLER_0_0_2269
*582 FILLER_0_0_2281
*583 FILLER_0_0_2293
*584 FILLER_0_0_2300
*585 FILLER_0_0_2312
*586 FILLER_0_0_2325
*587 FILLER_0_0_2337
*588 FILLER_0_0_2349
*589 FILLER_0_0_235
*590 FILLER_0_0_2363
*591 FILLER_0_0_2375
*592 FILLER_0_0_2379
*593 FILLER_0_0_2381
*594 FILLER_0_0_2393
*595 FILLER_0_0_2405
*596 FILLER_0_0_2409
*597 FILLER_0_0_2421
*598 FILLER_0_0_2433
*599 FILLER_0_0_2437
*600 FILLER_0_0_2449
*601 FILLER_0_0_2461
*602 FILLER_0_0_2465
*603 FILLER_0_0_247
*604 FILLER_0_0_2474
*605 FILLER_0_0_2486
*606 FILLER_0_0_2493
*607 FILLER_0_0_2505
*608 FILLER_0_0_251
*609 FILLER_0_0_2517
*610 FILLER_0_0_2521
*611 FILLER_0_0_2529
*612 FILLER_0_0_253
*613 FILLER_0_0_2533
*614 FILLER_0_0_2545
*615 FILLER_0_0_2549
*616 FILLER_0_0_2561
*617 FILLER_0_0_2573
*618 FILLER_0_0_2577
*619 FILLER_0_0_2589
*620 FILLER_0_0_2601
*621 FILLER_0_0_2605
*622 FILLER_0_0_2617
*623 FILLER_0_0_2629
*624 FILLER_0_0_2633
*625 FILLER_0_0_2645
*626 FILLER_0_0_265
*627 FILLER_0_0_2651
*628 FILLER_0_0_2659
*629 FILLER_0_0_2661
*630 FILLER_0_0_2673
*631 FILLER_0_0_2685
*632 FILLER_0_0_2689
*633 FILLER_0_0_27
*634 FILLER_0_0_2701
*635 FILLER_0_0_2715
*636 FILLER_0_0_2717
*637 FILLER_0_0_2721
*638 FILLER_0_0_2733
*639 FILLER_0_0_2741
*640 FILLER_0_0_2745
*641 FILLER_0_0_2757
*642 FILLER_0_0_2769
*643 FILLER_0_0_277
*644 FILLER_0_0_2773
*645 FILLER_0_0_2785
*646 FILLER_0_0_2797
*647 FILLER_0_0_2801
*648 FILLER_0_0_281
*649 FILLER_0_0_2813
*650 FILLER_0_0_2829
*651 FILLER_0_0_2841
*652 FILLER_0_0_2853
*653 FILLER_0_0_2857
*654 FILLER_0_0_2869
*655 FILLER_0_0_287
*656 FILLER_0_0_2881
*657 FILLER_0_0_2888
*658 FILLER_0_0_29
*659 FILLER_0_0_2900
*660 FILLER_0_0_2913
*661 FILLER_0_0_2925
*662 FILLER_0_0_2937
*663 FILLER_0_0_294
*664 FILLER_0_0_2941
*665 FILLER_0_0_2953
*666 FILLER_0_0_2965
*667 FILLER_0_0_2969
*668 FILLER_0_0_2981
*669 FILLER_0_0_2993
*670 FILLER_0_0_2997
*671 FILLER_0_0_3
*672 FILLER_0_0_3001
*673 FILLER_0_0_3005
*674 FILLER_0_0_3017
*675 FILLER_0_0_3023
*676 FILLER_0_0_3025
*677 FILLER_0_0_3037
*678 FILLER_0_0_3049
*679 FILLER_0_0_3053
*680 FILLER_0_0_306
*681 FILLER_0_0_3071
*682 FILLER_0_0_3079
*683 FILLER_0_0_3081
*684 FILLER_0_0_309
*685 FILLER_0_0_3093
*686 FILLER_0_0_3105
*687 FILLER_0_0_3109
*688 FILLER_0_0_3121
*689 FILLER_0_0_3133
*690 FILLER_0_0_3137
*691 FILLER_0_0_3149
*692 FILLER_0_0_3161
*693 FILLER_0_0_3165
*694 FILLER_0_0_3177
*695 FILLER_0_0_3182
*696 FILLER_0_0_3190
*697 FILLER_0_0_3193
*698 FILLER_0_0_3205
*699 FILLER_0_0_321
*700 FILLER_0_0_3217
*701 FILLER_0_0_3221
*702 FILLER_0_0_3233
*703 FILLER_0_0_3237
*704 FILLER_0_0_3249
*705 FILLER_0_0_3261
*706 FILLER_0_0_3273
*707 FILLER_0_0_3277
*708 FILLER_0_0_3289
*709 FILLER_0_0_3301
*710 FILLER_0_0_3305
*711 FILLER_0_0_3317
*712 FILLER_0_0_3329
*713 FILLER_0_0_333
*714 FILLER_0_0_3333
*715 FILLER_0_0_3345
*716 FILLER_0_0_3353
*717 FILLER_0_0_3359
*718 FILLER_0_0_3361
*719 FILLER_0_0_337
*720 FILLER_0_0_3373
*721 FILLER_0_0_3385
*722 FILLER_0_0_3389
*723 FILLER_0_0_3401
*724 FILLER_0_0_3413
*725 FILLER_0_0_3420
*726 FILLER_0_0_3432
*727 FILLER_0_0_3445
*728 FILLER_0_0_345
*729 FILLER_0_0_3457
*730 FILLER_0_0_3469
*731 FILLER_0_0_3473
*732 FILLER_0_0_3485
*733 FILLER_0_0_3497
*734 FILLER_0_0_3501
*735 FILLER_0_0_3513
*736 FILLER_0_0_3525
*737 FILLER_0_0_3529
*738 FILLER_0_0_353
*739 FILLER_0_0_3536
*740 FILLER_0_0_3548
*741 FILLER_0_0_3557
*742 FILLER_0_0_3569
*743 FILLER_0_0_3581
*744 FILLER_0_0_3585
*745 FILLER_0_0_361
*746 FILLER_0_0_3611
*747 FILLER_0_0_3613
*748 FILLER_0_0_3625
*749 FILLER_0_0_3637
*750 FILLER_0_0_3641
*751 FILLER_0_0_365
*752 FILLER_0_0_3653
*753 FILLER_0_0_3665
*754 FILLER_0_0_3669
*755 FILLER_0_0_3681
*756 FILLER_0_0_3693
*757 FILLER_0_0_3697
*758 FILLER_0_0_3709
*759 FILLER_0_0_3713
*760 FILLER_0_0_3721
*761 FILLER_0_0_3725
*762 FILLER_0_0_3737
*763 FILLER_0_0_3749
*764 FILLER_0_0_3753
*765 FILLER_0_0_3765
*766 FILLER_0_0_377
*767 FILLER_0_0_3772
*768 FILLER_0_0_3781
*769 FILLER_0_0_3793
*770 FILLER_0_0_3805
*771 FILLER_0_0_3809
*772 FILLER_0_0_3821
*773 FILLER_0_0_3833
*774 FILLER_0_0_3837
*775 FILLER_0_0_3849
*776 FILLER_0_0_3861
*777 FILLER_0_0_3865
*778 FILLER_0_0_3877
*779 FILLER_0_0_3885
*780 FILLER_0_0_389
*781 FILLER_0_0_3890
*782 FILLER_0_0_3893
*783 FILLER_0_0_3905
*784 FILLER_0_0_3917
*785 FILLER_0_0_3921
*786 FILLER_0_0_393
*787 FILLER_0_0_3933
*788 FILLER_0_0_3945
*789 FILLER_0_0_3952
*790 FILLER_0_0_3964
*791 FILLER_0_0_3977
*792 FILLER_0_0_3989
*793 FILLER_0_0_4001
*794 FILLER_0_0_4005
*795 FILLER_0_0_4017
*796 FILLER_0_0_4029
*797 FILLER_0_0_4033
*798 FILLER_0_0_4045
*799 FILLER_0_0_405
*800 FILLER_0_0_4057
*801 FILLER_0_0_4061
*802 FILLER_0_0_4067
*803 FILLER_0_0_4079
*804 FILLER_0_0_4087
*805 FILLER_0_0_4089
*806 FILLER_0_0_41
*807 FILLER_0_0_410
*808 FILLER_0_0_4101
*809 FILLER_0_0_4113
*810 FILLER_0_0_4117
*811 FILLER_0_0_4143
*812 FILLER_0_0_4145
*813 FILLER_0_0_4157
*814 FILLER_0_0_4169
*815 FILLER_0_0_4173
*816 FILLER_0_0_418
*817 FILLER_0_0_4185
*818 FILLER_0_0_4197
*819 FILLER_0_0_4201
*820 FILLER_0_0_421
*821 FILLER_0_0_4213
*822 FILLER_0_0_4225
*823 FILLER_0_0_4229
*824 FILLER_0_0_4244
*825 FILLER_0_0_4257
*826 FILLER_0_0_4269
*827 FILLER_0_0_4281
*828 FILLER_0_0_4285
*829 FILLER_0_0_4297
*830 FILLER_0_0_4303
*831 FILLER_0_0_4311
*832 FILLER_0_0_4313
*833 FILLER_0_0_4325
*834 FILLER_0_0_433
*835 FILLER_0_0_4337
*836 FILLER_0_0_4341
*837 FILLER_0_0_4353
*838 FILLER_0_0_4365
*839 FILLER_0_0_4369
*840 FILLER_0_0_4381
*841 FILLER_0_0_4393
*842 FILLER_0_0_4397
*843 FILLER_0_0_4409
*844 FILLER_0_0_4417
*845 FILLER_0_0_4421
*846 FILLER_0_0_4425
*847 FILLER_0_0_4437
*848 FILLER_0_0_4449
*849 FILLER_0_0_445
*850 FILLER_0_0_4453
*851 FILLER_0_0_4465
*852 FILLER_0_0_4477
*853 FILLER_0_0_449
*854 FILLER_0_0_4491
*855 FILLER_0_0_4503
*856 FILLER_0_0_4507
*857 FILLER_0_0_4509
*858 FILLER_0_0_4521
*859 FILLER_0_0_4533
*860 FILLER_0_0_4537
*861 FILLER_0_0_4549
*862 FILLER_0_0_4561
*863 FILLER_0_0_4565
*864 FILLER_0_0_4577
*865 FILLER_0_0_4589
*866 FILLER_0_0_4593
*867 FILLER_0_0_4598
*868 FILLER_0_0_4610
*869 FILLER_0_0_4618
*870 FILLER_0_0_4621
*871 FILLER_0_0_4633
*872 FILLER_0_0_4645
*873 FILLER_0_0_4649
*874 FILLER_0_0_4653
*875 FILLER_0_0_4657
*876 FILLER_0_0_4669
*877 FILLER_0_0_4675
*878 FILLER_0_0_4677
*879 FILLER_0_0_4689
*880 FILLER_0_0_4701
*881 FILLER_0_0_4705
*882 FILLER_0_0_4717
*883 FILLER_0_0_4729
*884 FILLER_0_0_473
*885 FILLER_0_0_4733
*886 FILLER_0_0_4745
*887 FILLER_0_0_4757
*888 FILLER_0_0_4761
*889 FILLER_0_0_4769
*890 FILLER_0_0_477
*891 FILLER_0_0_4775
*892 FILLER_0_0_4787
*893 FILLER_0_0_4789
*894 FILLER_0_0_4801
*895 FILLER_0_0_4813
*896 FILLER_0_0_4817
*897 FILLER_0_0_4825
*898 FILLER_0_0_4839
*899 FILLER_0_0_4843
*900 FILLER_0_0_4845
*901 FILLER_0_0_4857
*902 FILLER_0_0_4869
*903 FILLER_0_0_4873
*904 FILLER_0_0_4885
*905 FILLER_0_0_489
*906 FILLER_0_0_4897
*907 FILLER_0_0_4901
*908 FILLER_0_0_4913
*909 FILLER_0_0_4925
*910 FILLER_0_0_4929
*911 FILLER_0_0_4941
*912 FILLER_0_0_4952
*913 FILLER_0_0_4957
*914 FILLER_0_0_4969
*915 FILLER_0_0_4981
*916 FILLER_0_0_4985
*917 FILLER_0_0_4997
*918 FILLER_0_0_5005
*919 FILLER_0_0_501
*920 FILLER_0_0_5011
*921 FILLER_0_0_5013
*922 FILLER_0_0_5025
*923 FILLER_0_0_5037
*924 FILLER_0_0_5041
*925 FILLER_0_0_505
*926 FILLER_0_0_5053
*927 FILLER_0_0_5065
*928 FILLER_0_0_5069
*929 FILLER_0_0_5081
*930 FILLER_0_0_5093
*931 FILLER_0_0_5097
*932 FILLER_0_0_5109
*933 FILLER_0_0_5121
*934 FILLER_0_0_5125
*935 FILLER_0_0_5129
*936 FILLER_0_0_5141
*937 FILLER_0_0_5149
*938 FILLER_0_0_5153
*939 FILLER_0_0_5165
*940 FILLER_0_0_517
*941 FILLER_0_0_5177
*942 FILLER_0_0_5181
*943 FILLER_0_0_5195
*944 FILLER_0_0_5207
*945 FILLER_0_0_5209
*946 FILLER_0_0_5221
*947 FILLER_0_0_5233
*948 FILLER_0_0_5237
*949 FILLER_0_0_5249
*950 FILLER_0_0_5261
*951 FILLER_0_0_5265
*952 FILLER_0_0_5277
*953 FILLER_0_0_5289
*954 FILLER_0_0_529
*955 FILLER_0_0_5293
*956 FILLER_0_0_53
*957 FILLER_0_0_5301
*958 FILLER_0_0_5306
*959 FILLER_0_0_5318
*960 FILLER_0_0_5321
*961 FILLER_0_0_5333
*962 FILLER_0_0_5345
*963 FILLER_0_0_5349
*964 FILLER_0_0_5361
*965 FILLER_0_0_5365
*966 FILLER_0_0_5373
*967 FILLER_0_0_5377
*968 FILLER_0_0_5389
*969 FILLER_0_0_5401
*970 FILLER_0_0_5405
*971 FILLER_0_0_5417
*972 FILLER_0_0_5429
*973 FILLER_0_0_5433
*974 FILLER_0_0_5445
*975 FILLER_0_0_5457
*976 FILLER_0_0_5461
*977 FILLER_0_0_5473
*978 FILLER_0_0_5479
*979 FILLER_0_0_5483
*980 FILLER_0_0_5487
*981 FILLER_0_0_5489
*982 FILLER_0_0_549
*983 FILLER_0_0_5501
*984 FILLER_0_0_5513
*985 FILLER_0_0_5517
*986 FILLER_0_0_5529
*987 FILLER_0_0_553
*988 FILLER_0_0_5537
*989 FILLER_0_0_5542
*990 FILLER_0_0_5557
*991 FILLER_0_0_5561
*992 FILLER_0_0_5569
*993 FILLER_0_0_5573
*994 FILLER_0_0_5585
*995 FILLER_0_0_559
*996 FILLER_0_0_5597
*997 FILLER_0_0_5601
*998 FILLER_0_0_561
*999 FILLER_0_0_5613
*1000 FILLER_0_0_5625
*1001 FILLER_0_0_5629
*1002 FILLER_0_0_5641
*1003 FILLER_0_0_5653
*1004 FILLER_0_0_5660
*1005 FILLER_0_0_5672
*1006 FILLER_0_0_5685
*1007 FILLER_0_0_5697
*1008 FILLER_0_0_57
*1009 FILLER_0_0_5709
*1010 FILLER_0_0_5713
*1011 FILLER_0_0_5719
*1012 FILLER_0_0_573
*1013 FILLER_0_0_5731
*1014 FILLER_0_0_5739
*1015 FILLER_0_0_5741
*1016 FILLER_0_0_5753
*1017 FILLER_0_0_5765
*1018 FILLER_0_0_5769
*1019 FILLER_0_0_5781
*1020 FILLER_0_0_5793
*1021 FILLER_0_0_5797
*1022 FILLER_0_0_5809
*1023 FILLER_0_0_581
*1024 FILLER_0_0_5821
*1025 FILLER_0_0_5825
*1026 FILLER_0_0_5833
*1027 FILLER_0_0_5837
*1028 FILLER_0_0_5849
*1029 FILLER_0_0_5853
*1030 FILLER_0_0_5865
*1031 FILLER_0_0_587
*1032 FILLER_0_0_5877
*1033 FILLER_0_0_5881
*1034 FILLER_0_0_5903
*1035 FILLER_0_0_5907
*1036 FILLER_0_0_5909
*1037 FILLER_0_0_5921
*1038 FILLER_0_0_5933
*1039 FILLER_0_0_5937
*1040 FILLER_0_0_5949
*1041 FILLER_0_0_5961
*1042 FILLER_0_0_5965
*1043 FILLER_0_0_597
*1044 FILLER_0_0_5977
*1045 FILLER_0_0_5989
*1046 FILLER_0_0_5993
*1047 FILLER_0_0_6005
*1048 FILLER_0_0_6014
*1049 FILLER_0_0_6021
*1050 FILLER_0_0_6033
*1051 FILLER_0_0_6045
*1052 FILLER_0_0_6049
*1053 FILLER_0_0_6057
*1054 FILLER_0_0_609
*1055 FILLER_0_0_615
*1056 FILLER_0_0_617
*1057 FILLER_0_0_629
*1058 FILLER_0_0_641
*1059 FILLER_0_0_657
*1060 FILLER_0_0_669
*1061 FILLER_0_0_673
*1062 FILLER_0_0_685
*1063 FILLER_0_0_69
*1064 FILLER_0_0_697
*1065 FILLER_0_0_717
*1066 FILLER_0_0_721
*1067 FILLER_0_0_727
*1068 FILLER_0_0_729
*1069 FILLER_0_0_741
*1070 FILLER_0_0_753
*1071 FILLER_0_0_757
*1072 FILLER_0_0_771
*1073 FILLER_0_0_783
*1074 FILLER_0_0_785
*1075 FILLER_0_0_797
*1076 FILLER_0_0_809
*1077 FILLER_0_0_81
*1078 FILLER_0_0_813
*1079 FILLER_0_0_830
*1080 FILLER_0_0_838
*1081 FILLER_0_0_841
*1082 FILLER_0_0_85
*1083 FILLER_0_0_852
*1084 FILLER_0_0_864
*1085 FILLER_0_0_869
*1086 FILLER_0_0_877
*1087 FILLER_0_0_894
*1088 FILLER_0_0_897
*1089 FILLER_0_0_909
*1090 FILLER_0_0_912
*1091 FILLER_0_0_931
*1092 FILLER_0_0_945
*1093 FILLER_0_0_949
*1094 FILLER_0_0_953
*1095 FILLER_0_0_957
*1096 FILLER_0_0_97
*1097 FILLER_0_0_979
*1098 FILLER_0_0_981
*1099 FILLER_0_0_999
*1100 FILLER_0_100_1005
*1101 FILLER_0_100_1017
*1102 FILLER_0_100_1029
*1103 FILLER_0_100_1035
*1104 FILLER_0_100_1037
*1105 FILLER_0_100_1049
*1106 FILLER_0_100_1061
*1107 FILLER_0_100_1073
*1108 FILLER_0_100_1085
*1109 FILLER_0_100_109
*1110 FILLER_0_100_1091
*1111 FILLER_0_100_1093
*1112 FILLER_0_100_1105
*1113 FILLER_0_100_1117
*1114 FILLER_0_100_1129
*1115 FILLER_0_100_1141
*1116 FILLER_0_100_1147
*1117 FILLER_0_100_1149
*1118 FILLER_0_100_1161
*1119 FILLER_0_100_1173
*1120 FILLER_0_100_1185
*1121 FILLER_0_100_1197
*1122 FILLER_0_100_1203
*1123 FILLER_0_100_1205
*1124 FILLER_0_100_121
*1125 FILLER_0_100_1217
*1126 FILLER_0_100_1229
*1127 FILLER_0_100_1241
*1128 FILLER_0_100_1253
*1129 FILLER_0_100_1259
*1130 FILLER_0_100_1261
*1131 FILLER_0_100_1273
*1132 FILLER_0_100_1285
*1133 FILLER_0_100_1297
*1134 FILLER_0_100_1309
*1135 FILLER_0_100_1315
*1136 FILLER_0_100_1317
*1137 FILLER_0_100_1329
*1138 FILLER_0_100_133
*1139 FILLER_0_100_1341
*1140 FILLER_0_100_1353
*1141 FILLER_0_100_1365
*1142 FILLER_0_100_1371
*1143 FILLER_0_100_1373
*1144 FILLER_0_100_1385
*1145 FILLER_0_100_139
*1146 FILLER_0_100_1397
*1147 FILLER_0_100_1409
*1148 FILLER_0_100_141
*1149 FILLER_0_100_1421
*1150 FILLER_0_100_1427
*1151 FILLER_0_100_1429
*1152 FILLER_0_100_1441
*1153 FILLER_0_100_1453
*1154 FILLER_0_100_1465
*1155 FILLER_0_100_1477
*1156 FILLER_0_100_1483
*1157 FILLER_0_100_1485
*1158 FILLER_0_100_1497
*1159 FILLER_0_100_15
*1160 FILLER_0_100_1509
*1161 FILLER_0_100_1521
*1162 FILLER_0_100_153
*1163 FILLER_0_100_1533
*1164 FILLER_0_100_1539
*1165 FILLER_0_100_1541
*1166 FILLER_0_100_1553
*1167 FILLER_0_100_1565
*1168 FILLER_0_100_1577
*1169 FILLER_0_100_1589
*1170 FILLER_0_100_1595
*1171 FILLER_0_100_1597
*1172 FILLER_0_100_1609
*1173 FILLER_0_100_1621
*1174 FILLER_0_100_1633
*1175 FILLER_0_100_1645
*1176 FILLER_0_100_165
*1177 FILLER_0_100_1651
*1178 FILLER_0_100_1653
*1179 FILLER_0_100_1665
*1180 FILLER_0_100_1677
*1181 FILLER_0_100_1689
*1182 FILLER_0_100_1701
*1183 FILLER_0_100_1707
*1184 FILLER_0_100_1709
*1185 FILLER_0_100_1721
*1186 FILLER_0_100_1733
*1187 FILLER_0_100_1745
*1188 FILLER_0_100_1757
*1189 FILLER_0_100_1763
*1190 FILLER_0_100_1765
*1191 FILLER_0_100_177
*1192 FILLER_0_100_1777
*1193 FILLER_0_100_1789
*1194 FILLER_0_100_1801
*1195 FILLER_0_100_1813
*1196 FILLER_0_100_1819
*1197 FILLER_0_100_1821
*1198 FILLER_0_100_1833
*1199 FILLER_0_100_1845
*1200 FILLER_0_100_1857
*1201 FILLER_0_100_1869
*1202 FILLER_0_100_1875
*1203 FILLER_0_100_1877
*1204 FILLER_0_100_1889
*1205 FILLER_0_100_189
*1206 FILLER_0_100_1901
*1207 FILLER_0_100_1913
*1208 FILLER_0_100_1925
*1209 FILLER_0_100_1931
*1210 FILLER_0_100_1933
*1211 FILLER_0_100_1945
*1212 FILLER_0_100_195
*1213 FILLER_0_100_1957
*1214 FILLER_0_100_1969
*1215 FILLER_0_100_197
*1216 FILLER_0_100_1981
*1217 FILLER_0_100_1987
*1218 FILLER_0_100_1989
*1219 FILLER_0_100_2001
*1220 FILLER_0_100_2013
*1221 FILLER_0_100_2025
*1222 FILLER_0_100_2037
*1223 FILLER_0_100_2043
*1224 FILLER_0_100_2045
*1225 FILLER_0_100_2057
*1226 FILLER_0_100_2069
*1227 FILLER_0_100_2081
*1228 FILLER_0_100_209
*1229 FILLER_0_100_2093
*1230 FILLER_0_100_2099
*1231 FILLER_0_100_2101
*1232 FILLER_0_100_2113
*1233 FILLER_0_100_2125
*1234 FILLER_0_100_2137
*1235 FILLER_0_100_2149
*1236 FILLER_0_100_2155
*1237 FILLER_0_100_2157
*1238 FILLER_0_100_2169
*1239 FILLER_0_100_2181
*1240 FILLER_0_100_2193
*1241 FILLER_0_100_2205
*1242 FILLER_0_100_221
*1243 FILLER_0_100_2211
*1244 FILLER_0_100_2213
*1245 FILLER_0_100_2225
*1246 FILLER_0_100_2237
*1247 FILLER_0_100_2249
*1248 FILLER_0_100_2261
*1249 FILLER_0_100_2267
*1250 FILLER_0_100_2269
*1251 FILLER_0_100_2281
*1252 FILLER_0_100_2293
*1253 FILLER_0_100_2305
*1254 FILLER_0_100_2317
*1255 FILLER_0_100_2323
*1256 FILLER_0_100_2325
*1257 FILLER_0_100_233
*1258 FILLER_0_100_2337
*1259 FILLER_0_100_2349
*1260 FILLER_0_100_2361
*1261 FILLER_0_100_2373
*1262 FILLER_0_100_2379
*1263 FILLER_0_100_2381
*1264 FILLER_0_100_2393
*1265 FILLER_0_100_2405
*1266 FILLER_0_100_2417
*1267 FILLER_0_100_2429
*1268 FILLER_0_100_2435
*1269 FILLER_0_100_2437
*1270 FILLER_0_100_2449
*1271 FILLER_0_100_245
*1272 FILLER_0_100_2461
*1273 FILLER_0_100_2473
*1274 FILLER_0_100_2485
*1275 FILLER_0_100_2491
*1276 FILLER_0_100_2493
*1277 FILLER_0_100_2505
*1278 FILLER_0_100_251
*1279 FILLER_0_100_2517
*1280 FILLER_0_100_2529
*1281 FILLER_0_100_253
*1282 FILLER_0_100_2541
*1283 FILLER_0_100_2547
*1284 FILLER_0_100_2549
*1285 FILLER_0_100_2561
*1286 FILLER_0_100_2573
*1287 FILLER_0_100_2585
*1288 FILLER_0_100_2597
*1289 FILLER_0_100_2603
*1290 FILLER_0_100_2605
*1291 FILLER_0_100_2617
*1292 FILLER_0_100_2629
*1293 FILLER_0_100_2641
*1294 FILLER_0_100_265
*1295 FILLER_0_100_2653
*1296 FILLER_0_100_2659
*1297 FILLER_0_100_2661
*1298 FILLER_0_100_2673
*1299 FILLER_0_100_2685
*1300 FILLER_0_100_2697
*1301 FILLER_0_100_27
*1302 FILLER_0_100_2709
*1303 FILLER_0_100_2715
*1304 FILLER_0_100_2717
*1305 FILLER_0_100_2729
*1306 FILLER_0_100_2741
*1307 FILLER_0_100_2753
*1308 FILLER_0_100_2765
*1309 FILLER_0_100_277
*1310 FILLER_0_100_2771
*1311 FILLER_0_100_2773
*1312 FILLER_0_100_2785
*1313 FILLER_0_100_2797
*1314 FILLER_0_100_2809
*1315 FILLER_0_100_2821
*1316 FILLER_0_100_2827
*1317 FILLER_0_100_2829
*1318 FILLER_0_100_2841
*1319 FILLER_0_100_2853
*1320 FILLER_0_100_2865
*1321 FILLER_0_100_2877
*1322 FILLER_0_100_2883
*1323 FILLER_0_100_2885
*1324 FILLER_0_100_289
*1325 FILLER_0_100_2897
*1326 FILLER_0_100_29
*1327 FILLER_0_100_2909
*1328 FILLER_0_100_2921
*1329 FILLER_0_100_2933
*1330 FILLER_0_100_2939
*1331 FILLER_0_100_2941
*1332 FILLER_0_100_2953
*1333 FILLER_0_100_2965
*1334 FILLER_0_100_2977
*1335 FILLER_0_100_2989
*1336 FILLER_0_100_2995
*1337 FILLER_0_100_2997
*1338 FILLER_0_100_3
*1339 FILLER_0_100_3009
*1340 FILLER_0_100_301
*1341 FILLER_0_100_3021
*1342 FILLER_0_100_3033
*1343 FILLER_0_100_3045
*1344 FILLER_0_100_3051
*1345 FILLER_0_100_3053
*1346 FILLER_0_100_3065
*1347 FILLER_0_100_307
*1348 FILLER_0_100_3077
*1349 FILLER_0_100_3089
*1350 FILLER_0_100_309
*1351 FILLER_0_100_3101
*1352 FILLER_0_100_3107
*1353 FILLER_0_100_3109
*1354 FILLER_0_100_3121
*1355 FILLER_0_100_3133
*1356 FILLER_0_100_3145
*1357 FILLER_0_100_3157
*1358 FILLER_0_100_3163
*1359 FILLER_0_100_3165
*1360 FILLER_0_100_3177
*1361 FILLER_0_100_3189
*1362 FILLER_0_100_3201
*1363 FILLER_0_100_321
*1364 FILLER_0_100_3213
*1365 FILLER_0_100_3219
*1366 FILLER_0_100_3221
*1367 FILLER_0_100_3233
*1368 FILLER_0_100_3245
*1369 FILLER_0_100_3257
*1370 FILLER_0_100_3269
*1371 FILLER_0_100_3275
*1372 FILLER_0_100_3277
*1373 FILLER_0_100_3289
*1374 FILLER_0_100_3301
*1375 FILLER_0_100_3313
*1376 FILLER_0_100_3325
*1377 FILLER_0_100_333
*1378 FILLER_0_100_3331
*1379 FILLER_0_100_3333
*1380 FILLER_0_100_3345
*1381 FILLER_0_100_3357
*1382 FILLER_0_100_3369
*1383 FILLER_0_100_3381
*1384 FILLER_0_100_3387
*1385 FILLER_0_100_3389
*1386 FILLER_0_100_3401
*1387 FILLER_0_100_3413
*1388 FILLER_0_100_3425
*1389 FILLER_0_100_3437
*1390 FILLER_0_100_3443
*1391 FILLER_0_100_3445
*1392 FILLER_0_100_345
*1393 FILLER_0_100_3457
*1394 FILLER_0_100_3469
*1395 FILLER_0_100_3481
*1396 FILLER_0_100_3493
*1397 FILLER_0_100_3499
*1398 FILLER_0_100_3501
*1399 FILLER_0_100_3513
*1400 FILLER_0_100_3525
*1401 FILLER_0_100_3537
*1402 FILLER_0_100_3549
*1403 FILLER_0_100_3555
*1404 FILLER_0_100_3557
*1405 FILLER_0_100_3569
*1406 FILLER_0_100_357
*1407 FILLER_0_100_3581
*1408 FILLER_0_100_3593
*1409 FILLER_0_100_3605
*1410 FILLER_0_100_3611
*1411 FILLER_0_100_3613
*1412 FILLER_0_100_3625
*1413 FILLER_0_100_363
*1414 FILLER_0_100_3637
*1415 FILLER_0_100_3649
*1416 FILLER_0_100_365
*1417 FILLER_0_100_3661
*1418 FILLER_0_100_3667
*1419 FILLER_0_100_3669
*1420 FILLER_0_100_3681
*1421 FILLER_0_100_3693
*1422 FILLER_0_100_3705
*1423 FILLER_0_100_3717
*1424 FILLER_0_100_3723
*1425 FILLER_0_100_3725
*1426 FILLER_0_100_3737
*1427 FILLER_0_100_3749
*1428 FILLER_0_100_3761
*1429 FILLER_0_100_377
*1430 FILLER_0_100_3773
*1431 FILLER_0_100_3779
*1432 FILLER_0_100_3781
*1433 FILLER_0_100_3793
*1434 FILLER_0_100_3805
*1435 FILLER_0_100_3817
*1436 FILLER_0_100_3829
*1437 FILLER_0_100_3835
*1438 FILLER_0_100_3837
*1439 FILLER_0_100_3849
*1440 FILLER_0_100_3861
*1441 FILLER_0_100_3873
*1442 FILLER_0_100_3885
*1443 FILLER_0_100_389
*1444 FILLER_0_100_3891
*1445 FILLER_0_100_3893
*1446 FILLER_0_100_3905
*1447 FILLER_0_100_3917
*1448 FILLER_0_100_3929
*1449 FILLER_0_100_3941
*1450 FILLER_0_100_3947
*1451 FILLER_0_100_3949
*1452 FILLER_0_100_3961
*1453 FILLER_0_100_3973
*1454 FILLER_0_100_3985
*1455 FILLER_0_100_3997
*1456 FILLER_0_100_4003
*1457 FILLER_0_100_4005
*1458 FILLER_0_100_401
*1459 FILLER_0_100_4017
*1460 FILLER_0_100_4029
*1461 FILLER_0_100_4041
*1462 FILLER_0_100_4053
*1463 FILLER_0_100_4059
*1464 FILLER_0_100_4061
*1465 FILLER_0_100_4073
*1466 FILLER_0_100_4085
*1467 FILLER_0_100_4097
*1468 FILLER_0_100_41
*1469 FILLER_0_100_4109
*1470 FILLER_0_100_4115
*1471 FILLER_0_100_4117
*1472 FILLER_0_100_4129
*1473 FILLER_0_100_413
*1474 FILLER_0_100_4141
*1475 FILLER_0_100_4153
*1476 FILLER_0_100_4165
*1477 FILLER_0_100_4171
*1478 FILLER_0_100_4173
*1479 FILLER_0_100_4185
*1480 FILLER_0_100_419
*1481 FILLER_0_100_4197
*1482 FILLER_0_100_4209
*1483 FILLER_0_100_421
*1484 FILLER_0_100_4221